<?xml version="1.0" encoding="UTF-8"?>

<!-- generated on 03/06/21 11:37:39 by Eclipse SUMO duarouter Version 1.8.0
<configuration xmlns:xsi="http://www.w3.org/2001/XMLSchema-instance" xsi:noNamespaceSchemaLocation="http://sumo.dlr.de/xsd/duarouterConfiguration.xsd">

    <input>
        <net-file value="BSD.net.xml"/>
        <route-files value="trips.trips.xml"/>
    </input>

    <output>
        <output-file value="BSD.rou.xml"/>
        <alternatives-output value="BSD.rou.alt.xml"/>
    </output>

    <time>
        <begin value="0"/>
        <end value="500"/>
    </time>

    <report>
        <no-warnings value="true"/>
        <ignore-errors value="true"/>
        <no-step-log value="true"/>
    </report>

</configuration>
-->

<routes xmlns:xsi="http://www.w3.org/2001/XMLSchema-instance" xsi:noNamespaceSchemaLocation="http://sumo.dlr.de/xsd/routes_file.xsd">
   <vehicle id="veh0" depart="1.0" color="1,0,0">
      <route edges=" -359409608 359409609#4 -697060688 359409594#1 -359409616 359409621#1 757457244#6 479605451 154148013#5 154148013#6 757467200#0 757467200#1 757467199 757089161 756081030#0 756081030#1 362347492#0 362347492#1 362347492#2 362347492#3 362347492#4 362347492#5 757091805#0 757091805#1 749662139 757373594 757092065 757092063 754594908#0 754594908#1 754594908#2 754594908#3 754594908#4 754594908#5 754594908#6 754594908#7 754594908#8 754594908#9 754594908#10 754594908#11 754594908#12 894641851 -168336017 168336015 230287233#0 230287233#1 230287233#2 230291072 -230287236#1 -230287236#0 -230287233#0 -682059305#7 168335998 168336017 676448723 894641852 676448722 894641850 894641853 539383768#0 539383768#1 539383768#2 539383768#3 539383768#4 539383768#5 539383768#6 539383768#7 539383765#0 539383765#1 539383765#2 539383765#3 539383768#6 539383768#7 539383768#8 539383768#9 539383768#10 539383768#11 539383768#12 539383768#13 539383768#14 563175147#0 563175147#1 563175147#2 563175147#3 563175147#4 563175147#5 563175147#6 -359246245 362347497#6 362347497#7 362347497#8 362347497#9 885403818#0 885403818#1 885403818#2 885403818#3 777631198 777637429 757092064#0 757092064#1 757092063 754594908#0 754594908#1 754594908#2 539383767#0 539383767#1 539383767#2 539383767#3 539383767#4 539383767#5 539383767#6 539383767#7 398041367#3 359247810#6 359247810#7 359247810#8 359247810#9 754594908#4 754594908#5 562430406#0 562430406#1 562430406#2 562430406#3 562430406#4 562430406#5 562430406#6 562430406#7 562430406#8 562430406#9 562021795#4 562021795#5 757373596 757373599 757373597#0 757373597#1 757373600#0 757373600#1 757373600#2 757373600#3 757373598 757457244#0 757457244#1 757457244#2 757457244#3 757457244#4 359409621#0 359409616 359409594#2 359409594#0 697060688 697060687#0 -359409608"/>
      <stop busStop="busStop_5" duration="40"/>
      <stop busStop="busStop_15" duration="40"/>
      <stop busStop="busStop_14" duration="40"/>
      <stop busStop="busStop_13" duration="40"/>
      <stop busStop="busStop_7" duration="40"/>
      <stop busStop="busStop_25" duration="40"/>
      <stop busStop="busStop_6" duration="40"/>
      <stop busStop="busStop_12" duration="40"/>
      <stop busStop="depot" duration="40"/>
   </vehicle>
   <vehicle id="veh1" depart="1.0" color="1,0,0">
      <route edges=" -359409608 359409609#4 -697060688 359409594#1 -359409616 359409621#1 757457244#6 479605451 154148013#5 154148013#6 757467200#0 757467200#1 757467199 562021794#0 562021794#1 562021794#2 562021794#3 562021794#4 562021794#5 562021794#6 562021794#7 562021794#8 562021794#9 562021794#10 562021792 560361514#0 560361514#1 560361514#2 560361514#3 560361514#4 -562549606#2 -562549606#1 -562549606#0 188798031#2 55677625 762915601#0 -562549612#2 -562549612#1 562549612#1 562549612#2 762915601#1 219064996#4 219064996#5 219064996#6 762915596 219064998#0 219064998#1 676492821 676492822 -219064998#0 762915595 219064996#8 219064996#0 219064996#1 219064996#2 188798028#0 188798028#1 188798026 188798030#0 188798030#1 -359246996#6 -359246996#5 -359246996#4 -359246996#3 -359246996#2 -359246996#1 -359246996#0 562142025 359246983#2 359246983#3 359246983#4 359246983#5 359246983#6 154148014#0 154148014#1 154148014#2 154148014#3 -359245194 560361514#10 560361514#11 359246983#0 359246983#1 359246983#2 359247300#0 359247300#1 -359247291#0 359247300#5 359247300#6 359247300#7 359247300#8 359246983#4 359246983#5 359246983#6 154148014#0 154148014#1 154148014#2 154148014#3 154148014#4 154148014#5 154148014#6 154148014#7 154148014#8 154148014#9 154148014#10 154148014#11 154148014#12 154148014#13 154148014#14 154148014#15 154148014#16 154148014#17 154148014#18 562021790#0 562021790#1 757390879#0 757390879#1 562021795#0 562021795#1 562021795#2 562021795#3 562021795#4 562021795#5 757373596 757373599 757373597#0 757373597#1 757373600#0 757373600#1 757373600#2 757373600#3 757373598 757457244#0 757457244#1 757457244#2 757457244#3 757457244#4 359409621#0 359409616 359409594#2 359409594#0 697060688 697060687#0 -359409608"/>
      <stop busStop="busStop_17" duration="40"/>
      <stop busStop="busStop_16" duration="40"/>
      <stop busStop="busStop_4" duration="40"/>
      <stop busStop="busStop_8" duration="40"/>
      <stop busStop="busStop_18" duration="40"/>
      <stop busStop="busStop_19" duration="40"/>
      <stop busStop="depot" duration="40"/>
   </vehicle>
   <vehicle id="veh2" depart="1.0" color="1,0,0">
      <route edges=" -359409608 359409609#4 -697060688 359409594#1 -359409616 359409621#1 757457244#6 479605451 154148013#5 154148013#6 757467200#0 757467200#1 757467199 562021794#0 562021794#1 562021794#2 562021794#3 562021794#4 562021794#5 562021794#6 562021794#7 562021794#8 562021794#9 562021794#10 562021792 560361514#0 560361514#1 560361514#2 560361514#3 560361514#4 560361514#5 560361514#6 560361514#7 359246985 676171779#0 676171779#1 359246990#2 -359246991#1 359246989#0 359246989#1 359246989#2 -359246992#1 359246990#0 359246993#0 359246993#1 819067603 560361514#9 560361514#10 560361514#11 359246983#0 359246983#1 359246983#2 359247300#0 359247300#1 359247300#2 359247642 -359247644#3 563587627 588829880 588829879 359247644#2 359247644#3 676171783 359247300#4 359247300#5 359247300#6 359247300#7 359247300#8 359246983#4 359246983#5 359246983#6 154148014#0 154148014#1 154148014#2 154148014#3 154148014#4 154148014#5 154148014#6 154148014#7 154148014#8 154148014#9 154148014#10 154148014#11 -484446266#8 484446266#8 154148014#12 154148014#13 359244613 359244580#0 815232744 818969401 -675107653#5 -675107653#4 815241572 818969399 359244580#10 359244580#11 729090489 154148014#18 562021790#0 562021790#1 757390879#0 757390879#1 562021795#0 562021795#1 359245193 562021794#5 562021794#6 562021794#7 562021794#8 562021794#9 562021794#10 562021792 560361514#0 560361514#1 560361514#2 560361514#3 560361514#4 560361514#5 560361514#6 -359245192 154148014#8 154148014#9 154148014#10 154148014#11 154148014#12 154148014#13 154148014#14 154148014#15 154148014#16 154148014#17 154148014#18 562021790#0 562021790#1 757390879#0 757390879#1 562021795#0 562021795#1 562021795#2 562021795#3 562021795#4 562021795#5 757373596 757373599 757373597#0 757373597#1 757373600#0 757373600#1 757373600#2 757373600#3 757373598 757457244#0 757457244#1 757457244#2 757457244#3 757457244#4 359409621#0 359409616 359409594#2 359409594#0 697060688 697060687#0 -359409608"/>
      <stop busStop="busStop_3" duration="40"/>
      <stop busStop="busStop_20" duration="40"/>
      <stop busStop="busStop_1" duration="40"/>
      <stop busStop="busStop_2" duration="40"/>
      <stop busStop="busStop_24" duration="40"/>
      <stop busStop="busStop_9" duration="40"/>
      <stop busStop="depot" duration="40"/>
   </vehicle>
   <vehicle id="veh3" depart="1.0" color="1,0,0">
      <route edges=" -359409608 359409609#4 -697060688 359409594#1 -359409616 359409621#1 757457244#6 479605451 154148013#5 154148013#6 757467200#0 757467200#1 757467199 562021794#0 562021794#1 562021794#2 562021794#3 562021794#4 -359245193 562021795#2 359247813#0 359247813#1 359247813#2 359247813#3 398041365#0 562430406#7 562430406#8 562430406#9 562021795#4 562021795#5 757373596 757373599 757373597#0 757373597#1 757373600#0 757373600#1 757373600#2 757373600#3 756081030#0 756081030#1 362347492#0 398041366#0 398041366#1 398041366#2 539383767#12 539383767#13 539383767#14 539383767#15 539383767#16 757373596 757373599 757373597#0 757373597#1 757373600#0 757373600#1 757373600#2 757373600#3 757373598 757457244#0 757457244#1 757457244#2 359408298#0 359408298#1 359408298#2 -359408298#2 -359408298#1 -359408298#0 757457244#3 479605450 154148013#6 757467200#0 757467200#1 757467199 757089161 757373598 757457244#0 757457244#1 757457244#2 757457244#3 757457244#4 359409621#0 359409616 359409594#2 359409594#0 697060688 697060687#0 -359409608"/>
      <stop busStop="busStop_10" duration="40"/>
      <stop busStop="busStop_23" duration="40"/>
      <stop busStop="busStop_22" duration="40"/>
      <stop busStop="busStop_21" duration="40"/>
      <stop busStop="busStop_11" duration="40"/>
      <stop busStop="depot" duration="40"/>
   </vehicle>
   
    <vehicle id="1" depart="1.00">
        <route edges="-562929276#1 -562929276#0 -562929278#0 -761858248 -167789679#23 -167789679#22 -167789679#21 -167789679#20 -167789679#19 -167789679#18 -167789679#17 -167789679#16 -167789679#15 -167789679#14 -167789679#13 -167789679#12 -167789679#11 -167789679#10 -167789679#9 -167789679#8 -167789679#7 -167789679#6 -167789679#5 -167789679#4 -167789679#3 -167789679#2 -167789679#1 -167789679#0 674577973 52337090#36 52337090#37 52337090#38 52337090#39 52337090#40 52337090#41 52337090#42 52337090#43 676436712 822180070#0 822180070#1 822180070#2 563182107#0 563182107#1 563182107#2 563182107#3 563182107#4 563182107#5 563182107#6 563182107#7 563182107#8 563182107#9 563182107#10 563182107#11 563182107#12 359246983#6 757383634 359246983#0 588829853 359246996#0 359246996#1 359246996#2 359246996#3 359246996#4 359246996#5 359246996#6 188798031#0 188798031#1 188798031#2 55677625 762915601#0 762915601#1 219064996#4 219064996#5 219064996#6 219064996#7 219064996#8 219064996#0 676436709 188798027#0 188798027#1 188798027#2 188798027#3 188798027#4 188798027#5 188798027#6 740137790#0 740137790#1 740137790#2 740137790#3 740137790#4 740137790#5 740137790#6 740137790#7 740137790#8 740137790#9 740137790#10 740137790#11 740137790#12 740137790#13 740137790#14 740137790#15 740137790#16 740137790#17 740137790#18 740137790#19 740137791#0 740137791#1 740137791#2 740137791#3 740137791#4 740137791#5 740137791#6 740137791#7 740137791#8 740137791#9 740137791#10 740137791#11 740137791#12 762375365#0 -561454860#1 -561454860#0 -679649890 -561454858 -396049399#9 -396049399#8 -396049399#7 -396049399#6 -396049399#5 -396049399#4 -396049399#3 -396049399#2 530635269#0 530635269#1 530635269#2 530635269#3 530635269#4 -530635269#4"/>
    </vehicle>
    <vehicle id="2" depart="2.00">
        <route edges="542186394#7 754707681#0 754707681#1 754707682#0 754707682#1 754707682#2 754707682#3 754707682#4 756050842 682641313 756081033#0 756081033#1 756081033#2 766136205#0 766136205#1 766136205#2 766136205#3 766136205#4 766136205#5 766136205#6 766136205#7 766136205#8 766136205#9 766136204 766136203 766136202 766136201 766136200 766136199#0 766136199#1 766136198 264106336 264106329 776405490#0 776405490#1 756081032 758136380 749662141 757088117#0 757088117#1 757089161 756081030#0 756081030#1 362347492#0 362347492#1 362347492#2 362347492#3 362347492#4 362347492#5 757091805#0 757091805#1 749662139 757373594 749662140#0 749662140#1 749662140#2 756080770 539383768#15 749988360#0 749988360#1 749988360#2 749988360#3 749988360#4 749988360#5 749988360#6 749988360#7 749988360#8 749988360#9 749988360#10 749988360#11 749988360#12 749988360#13 749988360#14 749988360#15 749988360#16 749988360#17 562430376#0 562430376#1 562430376#2 562430376#3 562430376#4 562430376#5 562430376#6 562430376#7 562430376#8 562430376#9 562430375 843504985#0 843504985#1 843504985#2 843504985#3 843504985#4 843504985#5 843504985#6 843504985#7 843504985#8 843504985#9 843504985#10 843504985#11 843504985#12 480650596#0"/>
    </vehicle>
    <vehicle id="3" depart="3.00">
        <route edges="698816997 573843247#1 356342307#1 356342307#2 478699500 356342316#1 573843238 356342324 713605291 721908837 56463987 362979855 362979854#0 362979854#1 362979854#2 362979854#3 362979854#4 562631098 675107648 675107647#0 675107647#1 675107647#2 362999578#0 362999578#1 449402953#0 449402953#1 362999579#4 362999579#5 362999579#0 -362999600 362999599#2 362999599#3 362999599#0 814592886 -362999603"/>
    </vehicle>
    <vehicle id="4" depart="4.00">
        <route edges="-810386274 -388271176#3 -388271176#2 -388271176#1 -388271176#0 -740137790#19 -740137790#18 -740137790#17 -740137790#16 -740137790#15 -740137790#14 -740137790#13 -740137790#12 -740137790#11 -740137790#10 -740137790#9 -740137790#8 -740137790#7 -740137790#6 -740137790#5 -740137790#4 -740137790#3 -740137790#2 -740137790#1 -740137790#0 -188798027#6 -188798027#5 -188798027#4 -188798027#3 -188798027#2 -188798027#1 -188798027#0 676436710 219064996#2 188798028#0 188798028#1 188798026 188798030#0 188798030#1 -359246996#6 -359246996#5 -359246996#4 -359246996#3 -359246996#2 -359246996#1 -359246996#0 562142025 359246983#2 359246983#3 359246983#4 359246983#5 359246983#6 154148014#0 154148014#1 154148014#2 154148014#3 154148014#4 154148014#5 682199979 168336006#0 168336006#1 168336006#2 -682059305#0 -219132686#1 -359244586 359244604#1 359244600#0 359244600#1 -359244600#1"/>
    </vehicle>
    <vehicle id="5" depart="5.00">
        <route edges="-481287060 -809150701#3 -809150701#2 -809150701#1 -809150701#0 -388271176#18 -388271176#17 -388271176#16 -388271176#15 -388271176#14 -388271176#13 -388271176#12 -388271176#11 -388271176#10 -388271176#9 -388271176#8 -388271176#7 -388271176#6 -388271176#5 -388271176#4 -388271176#3 -388271176#2 -388271176#1 -388271176#0 -740137790#19 -740137790#18 -740137790#17 -740137790#16 -740137790#15 -740137790#14 -740137790#13 -740137790#12 -740137790#11 -740137790#10 -740137790#9 -740137790#8 -740137790#7 -740137790#6 -740137790#5 -740137790#4 -740137790#3 -740137790#2 -740137790#1 -740137790#0 -188798027#6 -188798027#5 -188798027#4 -188798027#3 -188798027#2 -188798027#1 -188798027#0 676436710 219064996#2 188798028#0 188798028#1 188798026 188798030#0 588829868#0 188798031#1 562549606#0 562549606#1 562549606#2 560361514#5 -359245191 154148014#10 154148014#11 154148014#12 154148014#13 154148014#14 154148014#15 154148014#16 154148014#17 154148014#18 562021790#0 562021790#1 757390879#0 757390879#1 562021795#0 562021795#1 562021795#2 562021795#3 562021795#4 562021795#5 757373596 757373599 757373597#0 757373597#1 757373600#0 757373600#1 757373600#2 757373600#3 757373598 757457244#0 757457244#1 757457244#2 757457244#3 757457244#4 757457244#5 757457244#6 757457244#7 359408310 -359408245 -470465976#2 -470465976#1 -470465976#0 675107663#3 675107663#0 675107663#1 359409602 359409591#4 359409591#5 -359409618#2 -359409618#1 -359409618#0 359409618#0"/>
    </vehicle>
    <vehicle id="6" depart="6.00">
        <route edges="-357857676 -357857665#1 -357857665#0 357857660#3 357857660#4 -77780290#0 77779581#11 -59986229#5 -77780126#2 -77780126#1 -77780126#0 -318783014#1 -318783014#0 542186394#4 542186394#5 542186394#6 542186394#7 754707681#0 754707681#1 754707682#0 754707682#1 754707682#2 754707682#3 754707682#4 756050842 682641313 756081033#0 756081033#1 756081033#2 766136205#0 766136205#1 766136205#2 766136205#3 766136205#4 766136205#5 766136205#6 766136205#7 766136205#8 766136205#9 766136204 766136203 766136202 766136201 766136200 766136199#0 766136199#1 766136198 264106336 264106329 776405490#0 776405490#1 756081032 758136380 749662141 757088117#0 757088117#1 757089161 756081030#0 756081030#1 362347492#0 362347492#1 362347492#2 362347492#3 362347492#4 362347492#5 757091805#0 757091805#1 749662139 757373594 749662140#0 749662140#1 749662140#2 756080770 539383768#15 749988360#0 749988360#1 749988360#2 749988360#3 749988360#4 749988360#5 749988360#6 749988360#7 749988360#8 749988360#9 749988360#10 749988360#11 749988360#12 749988360#13 749988360#14 749988360#15 749988360#16 749988360#17 562430376#0 562430376#1 562430376#2 562430376#3 562430376#4 562430376#5 562430376#6 562430376#7 562430376#8 562430376#9 562430375 843504985#0 843504985#1 843504985#2 843504985#3 843504985#4 843504985#5 843504985#6 843504985#7 843504985#8 843504985#9 843504985#10 843504985#11 843504985#12 480650596#0 480650596#1 480650596#2 480650596#3 480650596#4 480650596#5 480650596#6 480650585#0 480650585#1 -480650585#1"/>
    </vehicle>
    <vehicle id="7" depart="7.00">
        <route edges="403676104#0 -403676104#0 -362979854#5 -362979854#4 403676096#0 403676096#1 398181550#9 398181555 168328149#2 168328149#3 168328149#4 168328149#5 168328149#6 168328149#7 168328149#8 168328149#9 168328149#10 168328149#11 168328149#12 168328149#13 168328149#14 168328149#15 168328149#16 562631154#0 562631154#1 359245322#11 359245322#12 359245322#13 359245322#14 359245322#15 359245322#16 359245322#17 359245322#18 359245322#19 359245322#20 359245322#21 359245322#22 562631149 739766913#1 756050841#0 756050841#1 554170826#0 554170826#1 554170826#2 554170826#3 554170826#4 554170826#5 554170826#6 554170826#7 554170826#8 554170826#9 554170826#10 754685437#0 754685437#1 754685437#2 754685437#3 754685436 754685434 754978723 754685433#0 754685433#1 562364480 562364476 754693423#0 754693423#1 398191440#0 564196303#1 363361554 -739701179#14 -739701179#13 -739701179#12 -739701179#11 -739701179#10 -739701179#9 -739701179#8 -739701179#7 -739701179#6 363361569"/>
    </vehicle>
    <vehicle id="8" depart="8.00">
        <route edges="-482732135#1 482732135#1 -429410306#2 -429410306#1 -429410306#0 -429410286#12 -429410286#11 -429410286#10 -594412726#1 -594412726#0 -588606582 -562929208#1 -562929208#0 -429410276#4 -429410276#3 -429410276#2 -429410276#1 -429410276#0 674577832 -562929214#1 -562929214#0 -411234452#0 -707200284#3 -707200284#2 -707200284#1 -707200284#0 52337090#17 52337090#18 52337090#19 52337090#20 52337090#21 52337090#22 52337090#23 52337090#24 52337090#25 52337090#26 52337090#27 52337090#28 52337090#29 52337090#30 52337090#31 52337090#32 52337090#33 52337090#34 52337090#35 52337090#36 52337090#37 52337090#38 52337090#39 52337090#40 52337090#41 52337090#42 52337090#43 676436712 822180070#0 822180070#1 894641854#1 894641854#2 894641854#3 894641853 539383768#0 539383768#1 539383768#2 539383768#3 539383768#4 539383768#5 539383768#6 539383768#7 539383768#8 539383768#9 539383768#10 539383768#11 539383768#12 539383768#13 539383768#14 539383768#15 777631198 563175146#0 563175146#1 771544256#0 771544256#1 771544256#2 771544256#3 775190282#0 775190282#1 775190281 757373595#0 757373595#1 757373595#2 775190280 359245321 359245322#0 359245322#1 359245322#2 359245322#3 359245322#4 359245322#5 359245322#6 359245322#7 359245322#8 359245322#9 359245322#10 359245322#11 359245322#12 359245322#13 359245322#14 359245322#15 359245322#16 359245322#17 359245322#18 359245322#19 359245322#20 359245322#21 359245322#22 562631149 766156748#0 766156748#1 766156747 766156746 766156745#0 766156745#1 766156745#2 766156745#3 766156745#4 46560873#0 46560873#1 46560873#2 46560873#3 46560873#4 46560873#5 717660813#0 717660813#1 717660813#2 717660813#3 717660813#4 717660813#5 717660813#6 717660813#7 717660813#8 717660813#9 717660813#10 717660813#11 562356519 894402596 893429032 562356520#0 562356520#1 562356520#2 562356520#3 562356520#4 562356520#5 562356520#6 562356520#7 562356520#8 562356520#9 362987772 562356522#0 562356522#1 562356522#2 562356522#3 562356522#4 562356522#5 363788729#0 363788729#1 -363788720#2 -363788720#1 -363788720#0 363788720#0"/>
    </vehicle>
    <vehicle id="9" depart="9.00">
        <route edges="56457086#1 56457086#2 56457086#3 56457086#4 56457086#5 56457086#6 362985249#6 762925663 566981938#2 566981938#3 566981938#4 566981938#5 566981938#6 566981938#7 756043922#0 756043922#1 756043922#2 756043922#3 739462179#0 739462179#1 739462179#2 739462179#3 739462179#4 739462179#5 739462179#6 739462179#7 739462179#8 739462179#9 739462179#10 739462179#11 739462179#12 739462179#13 739462179#14 739462179#15 739462179#16 739462179#17 756043918 756043919#0 756043919#1 756043919#2 756043919#3 756050844#0 756050844#1 739766913#0 739766913#1 682641313 756081033#0 756081033#1 756081033#2 766136205#0 766136205#1 766136205#2 766136205#3 766136205#4 766136205#5 766136205#6 766136205#7 766136205#8 766136205#9 766136204 766136203 766136202 766136201 766136200 766136199#0 766136199#1 766136198 264106336 264106329 776405490#0 776405490#1 756081032 758136380 749662141 757088117#0 757088117#1 757089161 756081030#0 756081030#1 362347492#0 362347492#1 362347492#2 362347492#3 362347492#4 362347492#5 757091805#0 757091805#1 749662139 757373594 749662140#0 749662140#1 749662140#2 757092064#0 757092064#1 757092063 754594908#0 754594908#1 754594908#2 754594908#3 754594908#4 754594908#5 754594908#6 754594908#7 754594908#8 754594908#9 754594908#10 754594908#11 -225079364 812372793 225079362 -580310800#2 -580310800#1 -580310800#0 -225079367"/>
    </vehicle>
    <vehicle id="10" depart="10.00">
        <route edges="564196727#2 756394942 900487874 754685437#2 754685437#3 754685436 754685434 754709424 60863228#0 60863228#1 60863228#2 -52520671#7 -52520671#6 52520671#6"/>
    </vehicle>
    <vehicle id="12" depart="12.00">
        <route edges="766136198 264106336 264106329 776405490#0 776405490#1 756081032 758136380 749662141 757088117#0 757088117#1 757089161 756081030#0 756081030#1 362347492#0 362347492#1 362347492#2 362347492#3 362347492#4 362347492#5 757091805#0 757091805#1 749662139 757373594 749662140#0 749662140#1 749662140#2 756080770 539383768#15 749988360#0 749988360#1 749988360#2 749988360#3 749988360#4 749988360#5 749988360#6 749988360#7 749988360#8 749988360#9 749988360#10 749988360#11 749988360#12 749988360#13 749988360#14 749988360#15 749988360#16 749988360#17 749988360#18 749988360#19 749988360#20 749988360#21 757430744 757430743 757430741 757436793 757436792 757436791#0 757436791#1 757436790 897756047#0 897756047#1 897756047#2 897756047#3 897756047#4 897756047#5 732829172#0 732829172#1 479199697#0 479199697#1 -748719914#1 -748719914#0 479199695#3 746837485 816072252 816072253 -694951193#2"/>
    </vehicle>
    <vehicle id="13" depart="13.00">
        <route edges="-362999600 362999600 362999579#1 362999579#2 362999580 -362999578#1 -362999578#0 697060679#0 697060679#1 562631097 675107650 675107649 403676096#0 403676096#1 398181550#9 398181555 168328149#2 168328149#3 168328149#4 168328149#5 168328149#6 168328149#7 168328149#8 168328149#9 168328149#10 168328149#11 168328149#12 168328149#13 168328149#14 168328149#15 168328149#16 562631154#0 562631154#1 359245322#11 359245322#12 359245322#13 359245322#14 359245322#15 359245322#16 359245322#17 359245322#18 359245322#19 359245322#20 359245322#21 359245322#22 562631149 766156748#0 766156748#1 766156747 766156746 766156745#0 766156745#1 766156745#2 766156745#3 766156745#4 754707680#0 754707680#1 60863226#0 60863226#1 562631092 907596595 -77777386#8 -77777386#7 -77777386#6 -77777386#5 -77777386#4 -77777386#3 -77777386#2 -564196756#4 564196264 -564196755#2 818677221 77779581#6 675913691 363362952#1 -363362958#4 -363362958#3 -363362958#2"/>
    </vehicle>
    <vehicle id="14" depart="14.00">
        <route edges="588529278#0 588529278#1 359405299#4 359405299#5 359405324 359405305#4 359405305#5 359405288#0 359405288#1 359405288#2 -359405330 359405364#3 359405364#4 -359405313 359405363#5 359405363#6 359405363#7 359405363#8 560361515#5 359405319 765580505#2 765580505#3 765580505#4 765580505#5 765580505#6 765580505#7 765580504 154148013#0 154148013#1 154148013#2 154148013#3 154148013#4 154148013#5 154148013#6 757467200#0 757467200#1 757467199 562021794#0 562021794#1 562021794#2 562021794#3 562021794#4 562021794#5 562021794#6 562021794#7 562021794#8 562021794#9 562021794#10 562021792 560361514#0 560361514#1 560361514#2 560361514#3 560361514#4 -562549606#2 -562549606#1 -562549606#0 188798031#2 55677625 762915601#0 762915601#1 219064996#4 219064996#5 219064996#6 219064996#7 219064996#8 219064996#0 676436709 188798027#0 188798027#1 188798027#2 188798027#3 188798027#4 188798027#5 188798027#6 740137790#0 740137790#1 740137790#2 740137790#3 740137790#4 740137790#5 740137790#6 740137790#7 740137790#8 740137790#9 740137790#10 740137790#11 740137790#12 740137790#13 740137790#14 740137790#15 740137790#16 740137790#17 740137790#18 740137790#19 388271176#0 388271176#1 388271176#2 388271176#3 388271176#4 388271176#5 388271176#6 388271176#7 388271176#8 388271176#9 388271176#10 388271176#11 388271176#12 388271176#13 388271176#14 388271176#15 388271176#16 388271176#17 388271176#18 388271176#19 388271176#20 388271176#21 388271176#22 388271176#23 388271176#24"/>
    </vehicle>
    <vehicle id="15" depart="15.00">
        <route edges="564196746#0 564196746#1 -564196746#1 -588885887 762304135 564196738#0 363373850 742392668#4 742392668#5 742392668#6 564196375#0 564196375#1 564196375#2 564196375#3 564196375#4 564196375#5 55677539 55677575#0 55677575#1 55677575#2 55677509 756050840#0 756050840#1 756050840#2 756050840#3 756050840#4 756050840#5 756050840#6 756050840#7 756050840#8 756050839#0 756050839#1 756050839#2 756050839#3 562631149 766156748#0 766156748#1 766156747 766156746 766156745#0 766156745#1 766156745#2 766156745#3 766156745#4 46560873#0 46560873#1 46560873#2 46560873#3 46560873#4 46560873#5 717660813#0 717660813#1 717660813#2 717660813#3 717660813#4 717660813#5 717660813#6 717660813#7 717660813#8 717660813#9 717660813#10 717660813#11 562356519 894402596 893429032 562356520#0 562356520#1 562356520#2 562356520#3 562356520#4 562356520#5 562356520#6"/>
    </vehicle>
    <vehicle id="16" depart="16.00">
        <route edges="359409625#0 -359409600 359409593#3 359409593#4 359409593#0 359409607 -359408275#0 749313860#0 749313860#1 754594909#0 754594909#1 754594909#2 754594909#3 749313693#0 749313693#1 749313693#2 749313693#3 749313693#4 749313693#5 749313693#6 749313693#7 749313693#8 749313693#9 749313693#10 749313693#11 754598165#0 754598165#1 754598165#2 777637429 757092064#0 757092064#1 757092063 754594908#0 754594908#1 754594908#2 754594908#3 754594908#4 754594908#5 754594908#6 754594908#7 754594908#8 754594908#9 754594908#10 754594908#11 754594908#12 894425583 894425582 757097398#0 757097398#1 757097397 822180069#0 822180069#1 822180069#2 676436713 -52337090#43 -52337090#42 -52337090#41 -52337090#40 -52337090#39 -52337090#38 -52337090#37 -52337090#36 -52337090#35 -52337090#34 -52337090#33 -52337090#32 -52337090#31 -52337090#30 -52337090#29 -52337090#28 -52337090#27 -52337090#26 -52337090#25 -52337090#24 -52337090#23 -52337090#22 -52337090#21 -52337090#20 -52337090#19 -52337090#18 -52337090#17 -52337090#16 -52337090#15 -52337090#14 -52337090#13 -52337090#12 -52337090#11 -52337090#10 -52337090#9 -52337090#8 -52337090#7 -52337090#6 -52337090#5 -52337090#4 -52337090#3 -707134701#10 -707134701#9 -707134701#8 -707134701#7 -707134701#6 -707134701#5 -707134701#4 -707134701#3 569270443#0 792512810"/>
    </vehicle>
    <vehicle id="17" depart="17.00">
        <route edges="-713878127 -562929286#2 -562430390#2 -562430390#1 -562430390#0 -562430391#0 -562430404#0 -562430405#1 -562430405#0 562430403 359247815#2 359247809#10 359247814 539383762#6 539383762#7 539383762#8 539383762#9 539383768#9 539383768#10 539383768#11 539383768#12 539383768#13 539383768#14 539383768#15 777631198 563175146#0 563175146#1 771544256#0 771544256#1 771544256#2 771544256#3 775190282#0 775190282#1 775190281 757373595#0 757373595#1 757373595#2 775190280 359245321 359245322#0 359245322#1 359245322#2 359245322#3 359245322#4 359245322#5 359245322#6 359245322#7 359245322#8 359245322#9 359245322#10 359245322#11 359245322#12 359245322#13 359245322#14 359245322#15 359245322#16 359245322#17 359245322#18 359245322#19 359245322#20 359245322#21 359245322#22 562631149 739766913#1 756050841#0 756050841#1 554170826#0 554170826#1 554170826#2 554170826#3 554170826#4 554170826#5 554170826#6 554170826#7 554170826#8 554170826#9 554170826#10 554170826#11 554170826#12 554170826#13 756050838 756050837 166823567 166823572#0 166823572#1 55677576 55677537#0 55677537#1 774538931 564196375#5 55677539 55677575#0 55677575#1 55677575#2 55677509 756050840#0 756050840#1 363369286#0 363369286#1 363369289#2 363369290 363369292#3 363369300 363369301#2 363369302 363369303#0 363369303#1 -363369311#0 363369308#1"/>
    </vehicle>
    <vehicle id="19" depart="19.00">