<trips>
   <trip id="rute_0_1" depart="25" from="-359409608" to="-484446266#8"/>
   <trip id="rute_0_2" depart="25" from="-359409608" to="-675107653#5"/>
   <trip id="rute_0_3" depart="25" from="-359409608" to="359246993#0"/>
   <trip id="rute_0_4" depart="25" from="-359409608" to="154148014#2"/>
   <trip id="rute_0_5" depart="25" from="-359409608" to="230291072"/>
   <trip id="rute_0_6" depart="25" from="-359409608" to="539383767#1"/>
   <trip id="rute_0_7" depart="25" from="-359409608" to="539383765#3"/>
   <trip id="rute_0_8" depart="25" from="-359409608" to="560361514#10"/>
   <trip id="rute_0_9" depart="25" from="-359409608" to="560361514#6"/>
   <trip id="rute_0_10" depart="25" from="-359409608" to="562021794#1"/>
   <trip id="rute_0_11" depart="25" from="-359409608" to="154148013#6"/>
   <trip id="rute_0_12" depart="25" from="-359409608" to="754594908#4"/>
   <trip id="rute_0_13" depart="25" from="-359409608" to="539383768#6"/>
   <trip id="rute_0_14" depart="25" from="-359409608" to="539383768#2"/>
   <trip id="rute_0_15" depart="25" from="-359409608" to="539383768#0"/>
   <trip id="rute_1_0" depart="25" from="-484446266#8" to="-359409608"/>
   <trip id="rute_1_2" depart="25" from="-484446266#8" to="-675107653#5"/>
   <trip id="rute_1_3" depart="25" from="-484446266#8" to="359246993#0"/>
   <trip id="rute_1_4" depart="25" from="-484446266#8" to="154148014#2"/>
   <trip id="rute_1_5" depart="25" from="-484446266#8" to="230291072"/>
   <trip id="rute_1_6" depart="25" from="-484446266#8" to="539383767#1"/>
   <trip id="rute_1_7" depart="25" from="-484446266#8" to="539383765#3"/>
   <trip id="rute_1_8" depart="25" from="-484446266#8" to="560361514#10"/>
   <trip id="rute_1_9" depart="25" from="-484446266#8" to="560361514#6"/>
   <trip id="rute_1_10" depart="25" from="-484446266#8" to="562021794#1"/>
   <trip id="rute_1_11" depart="25" from="-484446266#8" to="154148013#6"/>
   <trip id="rute_1_12" depart="25" from="-484446266#8" to="754594908#4"/>
   <trip id="rute_1_13" depart="25" from="-484446266#8" to="539383768#6"/>
   <trip id="rute_1_14" depart="25" from="-484446266#8" to="539383768#2"/>
   <trip id="rute_1_15" depart="25" from="-484446266#8" to="539383768#0"/>
   <trip id="rute_2_0" depart="25" from="-675107653#5" to="-359409608"/>
   <trip id="rute_2_1" depart="25" from="-675107653#5" to="-484446266#8"/>
   <trip id="rute_2_3" depart="25" from="-675107653#5" to="359246993#0"/>
   <trip id="rute_2_4" depart="25" from="-675107653#5" to="154148014#2"/>
   <trip id="rute_2_5" depart="25" from="-675107653#5" to="230291072"/>
   <trip id="rute_2_6" depart="25" from="-675107653#5" to="539383767#1"/>
   <trip id="rute_2_7" depart="25" from="-675107653#5" to="539383765#3"/>
   <trip id="rute_2_8" depart="25" from="-675107653#5" to="560361514#10"/>
   <trip id="rute_2_9" depart="25" from="-675107653#5" to="560361514#6"/>
   <trip id="rute_2_10" depart="25" from="-675107653#5" to="562021794#1"/>
   <trip id="rute_2_11" depart="25" from="-675107653#5" to="154148013#6"/>
   <trip id="rute_2_12" depart="25" from="-675107653#5" to="754594908#4"/>
   <trip id="rute_2_13" depart="25" from="-675107653#5" to="539383768#6"/>
   <trip id="rute_2_14" depart="25" from="-675107653#5" to="539383768#2"/>
   <trip id="rute_2_15" depart="25" from="-675107653#5" to="539383768#0"/>
   <trip id="rute_3_0" depart="25" from="359246993#0" to="-359409608"/>
   <trip id="rute_3_1" depart="25" from="359246993#0" to="-484446266#8"/>
   <trip id="rute_3_2" depart="25" from="359246993#0" to="-675107653#5"/>
   <trip id="rute_3_4" depart="25" from="359246993#0" to="154148014#2"/>
   <trip id="rute_3_5" depart="25" from="359246993#0" to="230291072"/>
   <trip id="rute_3_6" depart="25" from="359246993#0" to="539383767#1"/>
   <trip id="rute_3_7" depart="25" from="359246993#0" to="539383765#3"/>
   <trip id="rute_3_8" depart="25" from="359246993#0" to="560361514#10"/>
   <trip id="rute_3_9" depart="25" from="359246993#0" to="560361514#6"/>
   <trip id="rute_3_10" depart="25" from="359246993#0" to="562021794#1"/>
   <trip id="rute_3_11" depart="25" from="359246993#0" to="154148013#6"/>
   <trip id="rute_3_12" depart="25" from="359246993#0" to="754594908#4"/>
   <trip id="rute_3_13" depart="25" from="359246993#0" to="539383768#6"/>
   <trip id="rute_3_14" depart="25" from="359246993#0" to="539383768#2"/>
   <trip id="rute_3_15" depart="25" from="359246993#0" to="539383768#0"/>
   <trip id="rute_4_0" depart="25" from="154148014#2" to="-359409608"/>
   <trip id="rute_4_1" depart="25" from="154148014#2" to="-484446266#8"/>
   <trip id="rute_4_2" depart="25" from="154148014#2" to="-675107653#5"/>
   <trip id="rute_4_3" depart="25" from="154148014#2" to="359246993#0"/>
   <trip id="rute_4_5" depart="25" from="154148014#2" to="230291072"/>
   <trip id="rute_4_6" depart="25" from="154148014#2" to="539383767#1"/>
   <trip id="rute_4_7" depart="25" from="154148014#2" to="539383765#3"/>
   <trip id="rute_4_8" depart="25" from="154148014#2" to="560361514#10"/>
   <trip id="rute_4_9" depart="25" from="154148014#2" to="560361514#6"/>
   <trip id="rute_4_10" depart="25" from="154148014#2" to="562021794#1"/>
   <trip id="rute_4_11" depart="25" from="154148014#2" to="154148013#6"/>
   <trip id="rute_4_12" depart="25" from="154148014#2" to="754594908#4"/>
   <trip id="rute_4_13" depart="25" from="154148014#2" to="539383768#6"/>
   <trip id="rute_4_14" depart="25" from="154148014#2" to="539383768#2"/>
   <trip id="rute_4_15" depart="25" from="154148014#2" to="539383768#0"/>
   <trip id="rute_5_0" depart="25" from="230291072" to="-359409608"/>
   <trip id="rute_5_1" depart="25" from="230291072" to="-484446266#8"/>
   <trip id="rute_5_2" depart="25" from="230291072" to="-675107653#5"/>
   <trip id="rute_5_3" depart="25" from="230291072" to="359246993#0"/>
   <trip id="rute_5_4" depart="25" from="230291072" to="154148014#2"/>
   <trip id="rute_5_6" depart="25" from="230291072" to="539383767#1"/>
   <trip id="rute_5_7" depart="25" from="230291072" to="539383765#3"/>
   <trip id="rute_5_8" depart="25" from="230291072" to="560361514#10"/>
   <trip id="rute_5_9" depart="25" from="230291072" to="560361514#6"/>
   <trip id="rute_5_10" depart="25" from="230291072" to="562021794#1"/>
   <trip id="rute_5_11" depart="25" from="230291072" to="154148013#6"/>
   <trip id="rute_5_12" depart="25" from="230291072" to="754594908#4"/>
   <trip id="rute_5_13" depart="25" from="230291072" to="539383768#6"/>
   <trip id="rute_5_14" depart="25" from="230291072" to="539383768#2"/>
   <trip id="rute_5_15" depart="25" from="230291072" to="539383768#0"/>
   <trip id="rute_6_0" depart="25" from="539383767#1" to="-359409608"/>
   <trip id="rute_6_1" depart="25" from="539383767#1" to="-484446266#8"/>
   <trip id="rute_6_2" depart="25" from="539383767#1" to="-675107653#5"/>
   <trip id="rute_6_3" depart="25" from="539383767#1" to="359246993#0"/>
   <trip id="rute_6_4" depart="25" from="539383767#1" to="154148014#2"/>
   <trip id="rute_6_5" depart="25" from="539383767#1" to="230291072"/>
   <trip id="rute_6_7" depart="25" from="539383767#1" to="539383765#3"/>
   <trip id="rute_6_8" depart="25" from="539383767#1" to="560361514#10"/>
   <trip id="rute_6_9" depart="25" from="539383767#1" to="560361514#6"/>
   <trip id="rute_6_10" depart="25" from="539383767#1" to="562021794#1"/>
   <trip id="rute_6_11" depart="25" from="539383767#1" to="154148013#6"/>
   <trip id="rute_6_12" depart="25" from="539383767#1" to="754594908#4"/>
   <trip id="rute_6_13" depart="25" from="539383767#1" to="539383768#6"/>
   <trip id="rute_6_14" depart="25" from="539383767#1" to="539383768#2"/>
   <trip id="rute_6_15" depart="25" from="539383767#1" to="539383768#0"/>
   <trip id="rute_7_0" depart="25" from="539383765#3" to="-359409608"/>
   <trip id="rute_7_1" depart="25" from="539383765#3" to="-484446266#8"/>
   <trip id="rute_7_2" depart="25" from="539383765#3" to="-675107653#5"/>
   <trip id="rute_7_3" depart="25" from="539383765#3" to="359246993#0"/>
   <trip id="rute_7_4" depart="25" from="539383765#3" to="154148014#2"/>
   <trip id="rute_7_5" depart="25" from="539383765#3" to="230291072"/>
   <trip id="rute_7_6" depart="25" from="539383765#3" to="539383767#1"/>
   <trip id="rute_7_8" depart="25" from="539383765#3" to="560361514#10"/>
   <trip id="rute_7_9" depart="25" from="539383765#3" to="560361514#6"/>
   <trip id="rute_7_10" depart="25" from="539383765#3" to="562021794#1"/>
   <trip id="rute_7_11" depart="25" from="539383765#3" to="154148013#6"/>
   <trip id="rute_7_12" depart="25" from="539383765#3" to="754594908#4"/>
   <trip id="rute_7_13" depart="25" from="539383765#3" to="539383768#6"/>
   <trip id="rute_7_14" depart="25" from="539383765#3" to="539383768#2"/>
   <trip id="rute_7_15" depart="25" from="539383765#3" to="539383768#0"/>
   <trip id="rute_8_0" depart="25" from="560361514#10" to="-359409608"/>
   <trip id="rute_8_1" depart="25" from="560361514#10" to="-484446266#8"/>
   <trip id="rute_8_2" depart="25" from="560361514#10" to="-675107653#5"/>
   <trip id="rute_8_3" depart="25" from="560361514#10" to="359246993#0"/>
   <trip id="rute_8_4" depart="25" from="560361514#10" to="154148014#2"/>
   <trip id="rute_8_5" depart="25" from="560361514#10" to="230291072"/>
   <trip id="rute_8_6" depart="25" from="560361514#10" to="539383767#1"/>
   <trip id="rute_8_7" depart="25" from="560361514#10" to="539383765#3"/>
   <trip id="rute_8_9" depart="25" from="560361514#10" to="560361514#6"/>
   <trip id="rute_8_10" depart="25" from="560361514#10" to="562021794#1"/>
   <trip id="rute_8_11" depart="25" from="560361514#10" to="154148013#6"/>
   <trip id="rute_8_12" depart="25" from="560361514#10" to="754594908#4"/>
   <trip id="rute_8_13" depart="25" from="560361514#10" to="539383768#6"/>
   <trip id="rute_8_14" depart="25" from="560361514#10" to="539383768#2"/>
   <trip id="rute_8_15" depart="25" from="560361514#10" to="539383768#0"/>
   <trip id="rute_9_0" depart="25" from="560361514#6" to="-359409608"/>
   <trip id="rute_9_1" depart="25" from="560361514#6" to="-484446266#8"/>
   <trip id="rute_9_2" depart="25" from="560361514#6" to="-675107653#5"/>
   <trip id="rute_9_3" depart="25" from="560361514#6" to="359246993#0"/>
   <trip id="rute_9_4" depart="25" from="560361514#6" to="154148014#2"/>
   <trip id="rute_9_5" depart="25" from="560361514#6" to="230291072"/>
   <trip id="rute_9_6" depart="25" from="560361514#6" to="539383767#1"/>
   <trip id="rute_9_7" depart="25" from="560361514#6" to="539383765#3"/>
   <trip id="rute_9_8" depart="25" from="560361514#6" to="560361514#10"/>
   <trip id="rute_9_10" depart="25" from="560361514#6" to="562021794#1"/>
   <trip id="rute_9_11" depart="25" from="560361514#6" to="154148013#6"/>
   <trip id="rute_9_12" depart="25" from="560361514#6" to="754594908#4"/>
   <trip id="rute_9_13" depart="25" from="560361514#6" to="539383768#6"/>
   <trip id="rute_9_14" depart="25" from="560361514#6" to="539383768#2"/>
   <trip id="rute_9_15" depart="25" from="560361514#6" to="539383768#0"/>
   <trip id="rute_10_0" depart="25" from="562021794#1" to="-359409608"/>
   <trip id="rute_10_1" depart="25" from="562021794#1" to="-484446266#8"/>
   <trip id="rute_10_2" depart="25" from="562021794#1" to="-675107653#5"/>
   <trip id="rute_10_3" depart="25" from="562021794#1" to="359246993#0"/>
   <trip id="rute_10_4" depart="25" from="562021794#1" to="154148014#2"/>
   <trip id="rute_10_5" depart="25" from="562021794#1" to="230291072"/>
   <trip id="rute_10_6" depart="25" from="562021794#1" to="539383767#1"/>
   <trip id="rute_10_7" depart="25" from="562021794#1" to="539383765#3"/>
   <trip id="rute_10_8" depart="25" from="562021794#1" to="560361514#10"/>
   <trip id="rute_10_9" depart="25" from="562021794#1" to="560361514#6"/>
   <trip id="rute_10_11" depart="25" from="562021794#1" to="154148013#6"/>
   <trip id="rute_10_12" depart="25" from="562021794#1" to="754594908#4"/>
   <trip id="rute_10_13" depart="25" from="562021794#1" to="539383768#6"/>
   <trip id="rute_10_14" depart="25" from="562021794#1" to="539383768#2"/>
   <trip id="rute_10_15" depart="25" from="562021794#1" to="539383768#0"/>
   <trip id="rute_11_0" depart="25" from="154148013#6" to="-359409608"/>
   <trip id="rute_11_1" depart="25" from="154148013#6" to="-484446266#8"/>
   <trip id="rute_11_2" depart="25" from="154148013#6" to="-675107653#5"/>
   <trip id="rute_11_3" depart="25" from="154148013#6" to="359246993#0"/>
   <trip id="rute_11_4" depart="25" from="154148013#6" to="154148014#2"/>
   <trip id="rute_11_5" depart="25" from="154148013#6" to="230291072"/>
   <trip id="rute_11_6" depart="25" from="154148013#6" to="539383767#1"/>
   <trip id="rute_11_7" depart="25" from="154148013#6" to="539383765#3"/>
   <trip id="rute_11_8" depart="25" from="154148013#6" to="560361514#10"/>
   <trip id="rute_11_9" depart="25" from="154148013#6" to="560361514#6"/>
   <trip id="rute_11_10" depart="25" from="154148013#6" to="562021794#1"/>
   <trip id="rute_11_12" depart="25" from="154148013#6" to="754594908#4"/>
   <trip id="rute_11_13" depart="25" from="154148013#6" to="539383768#6"/>
   <trip id="rute_11_14" depart="25" from="154148013#6" to="539383768#2"/>
   <trip id="rute_11_15" depart="25" from="154148013#6" to="539383768#0"/>
   <trip id="rute_12_0" depart="25" from="754594908#4" to="-359409608"/>
   <trip id="rute_12_1" depart="25" from="754594908#4" to="-484446266#8"/>
   <trip id="rute_12_2" depart="25" from="754594908#4" to="-675107653#5"/>
   <trip id="rute_12_3" depart="25" from="754594908#4" to="359246993#0"/>
   <trip id="rute_12_4" depart="25" from="754594908#4" to="154148014#2"/>
   <trip id="rute_12_5" depart="25" from="754594908#4" to="230291072"/>
   <trip id="rute_12_6" depart="25" from="754594908#4" to="539383767#1"/>
   <trip id="rute_12_7" depart="25" from="754594908#4" to="539383765#3"/>
   <trip id="rute_12_8" depart="25" from="754594908#4" to="560361514#10"/>
   <trip id="rute_12_9" depart="25" from="754594908#4" to="560361514#6"/>
   <trip id="rute_12_10" depart="25" from="754594908#4" to="562021794#1"/>
   <trip id="rute_12_11" depart="25" from="754594908#4" to="154148013#6"/>
   <trip id="rute_12_13" depart="25" from="754594908#4" to="539383768#6"/>
   <trip id="rute_12_14" depart="25" from="754594908#4" to="539383768#2"/>
   <trip id="rute_12_15" depart="25" from="754594908#4" to="539383768#0"/>
   <trip id="rute_13_0" depart="25" from="539383768#6" to="-359409608"/>
   <trip id="rute_13_1" depart="25" from="539383768#6" to="-484446266#8"/>
   <trip id="rute_13_2" depart="25" from="539383768#6" to="-675107653#5"/>
   <trip id="rute_13_3" depart="25" from="539383768#6" to="359246993#0"/>
   <trip id="rute_13_4" depart="25" from="539383768#6" to="154148014#2"/>
   <trip id="rute_13_5" depart="25" from="539383768#6" to="230291072"/>
   <trip id="rute_13_6" depart="25" from="539383768#6" to="539383767#1"/>
   <trip id="rute_13_7" depart="25" from="539383768#6" to="539383765#3"/>
   <trip id="rute_13_8" depart="25" from="539383768#6" to="560361514#10"/>
   <trip id="rute_13_9" depart="25" from="539383768#6" to="560361514#6"/>
   <trip id="rute_13_10" depart="25" from="539383768#6" to="562021794#1"/>
   <trip id="rute_13_11" depart="25" from="539383768#6" to="154148013#6"/>
   <trip id="rute_13_12" depart="25" from="539383768#6" to="754594908#4"/>
   <trip id="rute_13_14" depart="25" from="539383768#6" to="539383768#2"/>
   <trip id="rute_13_15" depart="25" from="539383768#6" to="539383768#0"/>
   <trip id="rute_14_0" depart="25" from="539383768#2" to="-359409608"/>
   <trip id="rute_14_1" depart="25" from="539383768#2" to="-484446266#8"/>
   <trip id="rute_14_2" depart="25" from="539383768#2" to="-675107653#5"/>
   <trip id="rute_14_3" depart="25" from="539383768#2" to="359246993#0"/>
   <trip id="rute_14_4" depart="25" from="539383768#2" to="154148014#2"/>
   <trip id="rute_14_5" depart="25" from="539383768#2" to="230291072"/>
   <trip id="rute_14_6" depart="25" from="539383768#2" to="539383767#1"/>
   <trip id="rute_14_7" depart="25" from="539383768#2" to="539383765#3"/>
   <trip id="rute_14_8" depart="25" from="539383768#2" to="560361514#10"/>
   <trip id="rute_14_9" depart="25" from="539383768#2" to="560361514#6"/>
   <trip id="rute_14_10" depart="25" from="539383768#2" to="562021794#1"/>
   <trip id="rute_14_11" depart="25" from="539383768#2" to="154148013#6"/>
   <trip id="rute_14_12" depart="25" from="539383768#2" to="754594908#4"/>
   <trip id="rute_14_13" depart="25" from="539383768#2" to="539383768#6"/>
   <trip id="rute_14_15" depart="25" from="539383768#2" to="539383768#0"/>
   <trip id="rute_15_0" depart="25" from="539383768#0" to="-359409608"/>
   <trip id="rute_15_1" depart="25" from="539383768#0" to="-484446266#8"/>
   <trip id="rute_15_2" depart="25" from="539383768#0" to="-675107653#5"/>
   <trip id="rute_15_3" depart="25" from="539383768#0" to="359246993#0"/>
   <trip id="rute_15_4" depart="25" from="539383768#0" to="154148014#2"/>
   <trip id="rute_15_5" depart="25" from="539383768#0" to="230291072"/>
   <trip id="rute_15_6" depart="25" from="539383768#0" to="539383767#1"/>
   <trip id="rute_15_7" depart="25" from="539383768#0" to="539383765#3"/>
   <trip id="rute_15_8" depart="25" from="539383768#0" to="560361514#10"/>
   <trip id="rute_15_9" depart="25" from="539383768#0" to="560361514#6"/>
   <trip id="rute_15_10" depart="25" from="539383768#0" to="562021794#1"/>
   <trip id="rute_15_11" depart="25" from="539383768#0" to="154148013#6"/>
   <trip id="rute_15_12" depart="25" from="539383768#0" to="754594908#4"/>
   <trip id="rute_15_13" depart="25" from="539383768#0" to="539383768#6"/>
   <trip id="rute_15_14" depart="25" from="539383768#0" to="539383768#2"/>
</trips>
