<?xml version="1.0" encoding="UTF-8"?>

<!-- generated on 03/04/21 19:10:13 by Eclipse SUMO polyconvert Version 1.8.0
<configuration xmlns:xsi="http://www.w3.org/2001/XMLSchema-instance" xsi:noNamespaceSchemaLocation="http://sumo.dlr.de/xsd/polyconvertConfiguration.xsd">

    <input>
        <net-file value="map-bsd2.net.xml"/>
        <osm-files value="map-bsd2.osm"/>
        <type-file value="typemap.xml"/>
    </input>

    <output>
        <output-file value="poly_map-bsd2.poly.xml"/>
    </output>

    <processing>
        <poi-layer-offset value="5"/>
    </processing>

</configuration>
-->

<additional xmlns:xsi="http://www.w3.org/2001/XMLSchema-instance" xsi:noNamespaceSchemaLocation="http://sumo.dlr.de/xsd/additional_file.xsd">
    <location netOffset="-681609.59,698368.80" convBoundary="-3365.21,-7516.66,10697.69,34379.24" origBoundary="106.610795,-6.383167,106.738664,-6.004623" projParameter="+proj=utm +zone=48 +ellps=WGS84 +datum=WGS84 +units=m +no_defs"/>

    <poly id="168336012" type="water" color="181,209,209" fill="1" layer="-4.00" shape="1150.984007,1725.795925 1155.421024,1736.221548 1164.616843,1746.864348 1182.357789,1754.848064 1224.493295,1761.372174 1259.505543,1758.308565 1278.342314,1748.926195 1301.569814,1731.854980 1321.607485,1710.348149 1326.340921,1702.558692 1329.027934,1687.996564 1334.756729,1687.027342 1339.161994,1683.927929 1339.372991,1677.181284 1335.190489,1673.755194 1313.465027,1668.958075 1306.166463,1663.418532 1302.922439,1655.842351 1303.122508,1645.645341 1307.160929,1638.521625 1316.838390,1630.041906 1326.658989,1635.308041 1337.656744,1624.446454 1342.325213,1617.110617 1349.761658,1603.307564 1358.403179,1596.158196 1372.021302,1591.614031 1385.542547,1591.416349 1394.614417,1594.362459 1420.604151,1579.516329 1441.395400,1561.888743 1459.331488,1544.170670 1452.778885,1533.099288 1422.156174,1549.010733 1412.054904,1532.000866 1396.809658,1539.867898 1388.687771,1539.893645 1372.848014,1548.713625 1355.185982,1555.150636 1334.648788,1555.182545 1311.230460,1567.875045 1303.594937,1578.217263 1300.066867,1592.748877 1269.944566,1588.498125 1266.810212,1601.568703 1260.946203,1612.248129 1255.479566,1629.605915 1250.413685,1640.736229 1240.782826,1656.946008 1227.174981,1671.730711 1214.630620,1683.404471 1199.781108,1693.957510 1152.328186,1702.988077 1150.984007,1725.795925"/>
    <poly id="225081499" type="building" color="255,230,230" fill="1" layer="-1.00" shape="2787.875346,2233.864630 2788.495505,2164.666175 2919.349280,2165.818818 2918.729276,2235.017315 2913.495106,2234.967675 2787.875346,2233.864630"/>
    <poly id="225081499#1" type="shop" color="237,199,255" fill="1" layer="-1.00" shape="2787.875346,2233.864630 2788.495505,2164.666175 2919.349280,2165.818818 2918.729276,2235.017315 2913.495106,2234.967675 2787.875346,2233.864630"/>
    <poly id="230183836" type="amenity" color="237,199,199" fill="1" layer="-1.00" shape="2581.579031,1851.702820 2627.116734,1852.729832 2627.593390,1832.180610 2621.141756,1832.035305 2621.229456,1828.308128 2613.095748,1828.123952 2613.844736,1795.818099 2608.975593,1795.711982 2609.238234,1784.386685 2599.510981,1784.163355 2599.278360,1794.493243 2582.900301,1794.125239 2581.579031,1851.702820"/>
    <poly id="230183836#1" type="building" color="255,230,230" fill="1" layer="-1.00" shape="2581.579031,1851.702820 2627.116734,1852.729832 2627.593390,1832.180610 2621.141756,1832.035305 2621.229456,1828.308128 2613.095748,1828.123952 2613.844736,1795.818099 2608.975593,1795.711982 2609.238234,1784.386685 2599.510981,1784.163355 2599.278360,1794.493243 2582.900301,1794.125239 2581.579031,1851.702820"/>
    <poly id="303569049" type="water" color="181,209,209" fill="0" layer="-4.00" shape="1027.618719,-5176.107810 1042.081045,-5137.502839 1116.129178,-5062.449803 1467.316423,-4937.290240 1592.668688,-4910.950930 1653.897026,-4855.863041 1680.942188,-4799.239035 1661.273029,-4642.912059 1546.232811,-4451.200638 1515.157888,-4339.150827 1528.597617,-4201.840899 1462.106620,-3895.658692 1396.439704,-3812.616912 1253.696942,-3757.772937 1029.073780,-3593.162260 810.583003,-3378.652128 622.279973,-3179.765989 570.033486,-3085.853169 556.848825,-2959.153044 588.738915,-2707.585623 657.711970,-2611.005602 735.503723,-2549.234068 959.002599,-2422.047581 1193.667793,-2315.400625 1413.925080,-2188.813336 1495.650968,-2094.353548 1642.793495,-1933.383494 1668.908464,-1891.055514 1696.615438,-1790.197274 1726.942520,-1731.670222 1839.733907,-1579.990867 1898.837976,-1525.791306 1985.242616,-1491.253445 2063.018064,-1407.851446 2104.098755,-1329.153961 2072.047770,-1279.462871 1922.664858,-1184.762974 1788.693784,-1069.587218 1771.830924,-1048.764624 1765.883636,-1019.240221 1795.844566,-936.824463 1870.891763,-782.591465 1881.018191,-667.455172 1859.895279,-598.014629 1845.008574,-536.888244 1863.087022,-426.344676 1887.827398,-325.974507 1924.620780,-280.163693 1979.043478,-264.755040 2132.767403,-314.137348 2183.672682,-319.154742 2217.050330,-310.502551 2244.761018,-281.583191 2267.986836,-201.800082 2223.372271,-94.418217 2108.821830,-5.713206 2046.980989,5.310786 1973.347476,6.773065 1897.143542,-13.653409 1654.039698,-129.717764 1610.985904,-129.625009 1565.124848,-107.637603 1527.871852,-57.974832 1514.976807,13.772686 1514.576129,100.056229 1527.544081,148.685638 1541.764525,180.578809 1596.833008,266.785555 1677.230156,346.165749 1784.418235,422.684836 1813.041635,467.205786 1852.499556,560.926959 1917.363328,741.568512 1910.623454,842.038959 1868.871164,921.055715 1770.591086,970.260125 1720.190577,998.665023 1685.274913,1052.887660 1663.494168,1110.751179 1630.772056,1245.984979 1613.931019,1312.315005 1602.631072,1499.845043 1590.696857,1553.817622 1556.690707,1643.779818 1525.391642,1648.811411 1471.191123,1679.495040 1382.068920,1759.291624 1348.275256,1811.696609 1326.563646,1870.676558 1317.562396,1900.520068 1313.771904,2024.381543 1339.187728,2170.677675 1363.930096,2327.935399 1397.134335,2445.707919 1581.686487,2694.050079 1631.430300,2737.221588 1720.354632,2814.396937 1751.195840,2881.139730 1751.435959,2932.452702 1731.756403,3014.716575 1658.568900,3147.689513 1569.411171,3245.058650 1465.457649,3296.745492 1333.484778,3327.154733 1108.020501,3446.042989 908.962237,3517.050103 752.896060,3669.547053 636.741747,3821.574961 538.956723,4026.638630 497.647363,4244.695683 502.917026,4410.972187 552.940575,4465.667296 656.408110,4518.988976 725.254447,4545.358186 901.270540,4612.772667 1008.411650,4704.423688 1077.251415,4840.984005 1098.698535,4883.548719 1148.616325,5058.930277 1136.796014,5132.144607 986.800179,5196.747605 691.286454,5416.599220 664.186760,5483.911542 718.264968,5691.317884 823.624314,5969.329378 834.506755,6034.166923 829.974154,6102.580668 808.735131,6143.930342 705.651430,6210.297738 640.642557,6303.684122 521.509759,6552.916346 473.597759,6798.386295 355.702439,7242.372215 245.156320,7581.219565 247.716028,7642.544229 307.772084,7861.732119 330.521291,7991.735894 315.779704,8083.592918 272.906129,8136.212269 103.049180,8226.075789 -214.488458,8416.514336 -522.089746,8649.828108 -540.955352,8689.997146 -539.610175,8741.881121 -402.747407,9013.271919 -308.866092,9160.184903 -227.620632,9293.479407 -249.111829,9354.181944 -274.971334,9390.944520 -345.394510,9478.340190 -565.721664,9646.509945 -1069.610878,9880.426475 -1171.623876,9927.299203 -1267.485463,10016.684926 -1295.862033,10052.160681 -1243.894195,10349.228095 -1184.066144,10500.018486 -1180.226102,10589.649406 -1194.163562,10688.768322 -1243.845373,10749.070396 -1574.108210,11079.186279 -1839.000774,11232.943337 -2321.285303,11357.484013 -2380.439159,11429.613340 -2380.283962,11480.328307 -2374.294074,11495.648468 -2320.772592,11524.967305 -2146.184920,11540.954445 -2070.471637,11549.292971 -2017.587024,11562.113850 -1970.990955,11581.345943 -1954.093735,11591.446078 -1948.509628,11604.323482 -1949.928043,11618.162359 -1959.527435,11649.266950 -1967.856892,11672.250504 -1987.953757,11715.894742 -2014.107725,11769.278189 -2069.704695,11889.867483 -2102.838872,11973.252540 -2140.302629,12084.839593 -2145.349626,12117.257217 -2143.450528,12155.570015 -2134.684691,12195.542725 -2124.149578,12220.569632 -2033.992742,12387.922372 -1977.744506,12501.423207 -1931.319062,12580.351232 -1919.771693,12596.174142 -1884.183510,12638.154818 -1773.651428,12769.128052 -1723.286242,12822.564531 -1693.889399,12862.927439 -1674.790233,12898.024756 -1658.663598,12959.882383 -1655.774666,12999.707263 -1682.468244,13209.463582 -1696.526942,13360.182536 -1693.641142,13543.550376 -1681.149024,13629.284012 -1672.474572,13679.077250 -1662.551588,13695.657150 -1641.402749,13720.574167 -1611.640001,13742.976572 -1486.480864,13792.412920 -1459.259942,13797.936291 -1432.766497,13800.818830 -1393.687905,13800.533129 -1305.108175,13788.129937 -1192.785943,13772.977487 -1117.067087,13764.052761 -1060.930463,13757.510447 -1030.573673,13764.229402 -936.955429,13821.126796 -902.761398,13841.181894 -859.875816,13873.164834 -818.203101,13921.009835 -785.066872,14000.122257 -781.544888,14029.715893 -786.942924,14045.071083 -798.037298,14061.560731 -830.840749,14090.668890 -852.699961,14101.253033 -887.669189,14113.503109 -979.739163,14128.416834 -1046.525244,14141.505475 -1130.025226,14172.040835 -1156.691336,14188.699820 -1191.607817,14221.773246 -1219.659189,14259.503455 -1237.317881,14297.301298 -1245.861767,14344.327394 -1249.428866,14379.339428 -1247.643937,14416.425163 -1240.740701,14469.596815 -1230.426796,14534.192810 -1227.687052,14597.529207 -1228.789848,14652.981401 -1233.017435,14696.400141 -1241.914537,14736.559785 -1252.237029,14781.103076 -1262.220539,14817.085813 -1274.631653,14837.394612 -1282.735928,14850.966464 -1345.234381,14909.139142 -1418.879465,14988.589768 -1455.390471,15039.726739 -1470.590667,15067.309619 -1479.184585,15087.274898 -1483.779642,15115.588382 -1477.228930,15176.634946 -1469.138088,15202.056459 -1430.228664,15269.174845 -1421.025841,15289.052506 -1383.493984,15401.482955 -1382.693065,15417.272453 -1387.333194,15561.117228 -1436.988064,15899.999615 -1450.572802,16007.222844 -1451.873136,16092.401551 -1450.745121,16139.198867 -1435.297244,16174.440245 -1405.739148,16201.952660 -1377.226694,16224.115811 -1333.557927,16244.031932 -1269.140921,16248.059469 -1190.587741,16234.747746 -1117.483771,16227.446453 -1053.987646,16227.108346 -1002.313345,16229.991307 -965.109514,16238.602770 -849.230145,16288.255695 -833.477003,16303.789283 -823.646321,16326.197484 -826.180318,16348.057461 -843.098313,16389.436080 -855.358176,16433.941118 -868.308096,16455.523350 -1180.835127,16868.773805 -1236.586200,16937.298538 -1270.560701,16982.312051 -1344.474273,17065.522856 -1443.666387,17174.577578 -1467.845432,17208.845064 -1476.712937,17222.739812 -1522.869447,17305.511705 -1880.643498,17780.203477 -1947.053605,17845.574555 -1971.564503,17861.894335 -1999.917599,17866.791030 -2034.972292,17866.300338 -2127.814602,17825.631733 -2280.402743,17686.577791 -2318.174261,17636.917021 -2328.935593,17610.375533 -2397.921945,17461.314040 -2632.641599,17334.407864 -2692.876186,17326.506395 -2754.123346,17346.066715 -2806.667882,17377.621441 -2980.459542,17538.763704 -3038.681771,17607.127589 -3091.886709,17680.330992 -3104.580469,17710.128271 -3101.332020,17748.591654 -3112.290299,17817.984861 -3126.831828,17862.672700 -3144.310443,17924.377659 -3154.471426,17949.931782 -3174.975871,17980.924811 -3195.416458,18014.748658 -3207.260507,18135.489951 -3200.472196,18250.402402 -3186.412857,18317.331405 -3173.660419,18354.616014 -3124.652497,18445.514382 -3088.433823,18523.601129 -3077.387206,18567.769393 -3074.688616,18757.904379 -3015.615348,18934.477290 -2990.469795,18981.555718 -2941.491815,19043.989134 -2908.304168,19096.826993 -2891.662254,19142.847318 -2837.595036,19230.136372 -2808.088123,19295.603307 -2808.118327,19340.612312 -2834.144484,19394.281302 -2875.794736,19449.512431 -2920.109569,19483.717905 -2991.796840,19488.567594 -3025.209379,19497.017594 -3061.898341,19520.119147 -3094.052115,19545.938506 -3139.535528,19603.812865 -3198.159043,19661.140602 -3281.026568,19731.933236 -3336.432794,19806.535794 -3353.864639,19847.416820 -3359.621531,19880.145677 -3365.212608,19923.855294 -3363.954234,19970.585456 -3349.682167,20012.642925 -3331.890000,20040.059192 -3304.500553,20067.734135 -3286.690643,20078.949386 -3259.840807,20085.437517 -3205.263682,20110.454010 -3154.816186,20138.789433 -3111.963760,20162.768440 -3086.543766,20194.319788 -3060.973206,20235.436441 -3038.093546,20283.494987 -3004.227357,20337.348395 -2983.269702,20386.695534 -2973.706236,20434.539811 -2976.800868,20498.589990 -2980.528941,20569.166698 -2991.742082,20624.173173 -3002.625334,20715.263141 -3003.444071,20748.496955 -3010.783636,20807.052655 -3016.889016,20849.060844 -3005.549464,20968.549013 -2919.180542,21034.475497 -2795.559200,21058.134044 -2695.694009,21220.606358 -2591.663670,21328.878445 -2563.889572,21336.978216 -2537.060037,21340.170757 -2456.559221,21328.084260 -2392.906341,21319.310776 -2316.849657,21320.076648 -2280.525774,21329.676604 -2234.745352,21347.829568 -2196.196958,21375.636485 -2061.866767,21514.161649 -2034.080694,21537.146231 -1997.795311,21555.913867 -1945.250520,21559.725177 -1793.553744,21547.632736 -1729.466928,21543.148062 -1651.476141,21546.417646 -1598.238372,21556.065577 -1539.281574,21579.121473 -1411.508439,21627.857345 -1355.577530,21653.167196 -1295.418651,21696.578446 -1247.980525,21757.401570 -1081.422733,21929.457332 -1016.716875,21990.139500 -976.556885,22041.617844 -943.841349,22091.095029 -940.543872,22116.243748 -962.330503,22162.778902 -972.157868,22207.198685 -965.219881,22242.886430 -950.670444,22280.862356 -944.556473,22351.398828 -928.978705,22447.352835 -921.875140,22497.471795 -880.378085,22591.843148 -856.698250,22632.876772 -816.739586,22690.814095 -779.766105,22757.176213 -707.218193,22895.699498 -656.126525,22996.389461 -617.752732,23068.132952 -601.965996,23112.486064 -584.516829,23175.722552 -579.698713,23216.780289 -576.448320,23270.129112 -582.289020,23304.219005 -601.214474,23345.348849 -627.539084,23377.609873 -645.013506,23411.779300 -656.219215,23432.504316 -676.119513,23473.426951 -681.823169,23501.644178 -704.848394,23625.395548 -713.119536,23693.974070 -727.082060,23754.707047 -749.528870,23813.773743 -767.470502,23865.527962 -788.813887,23916.164480 -816.414466,23980.455420 -838.109207,24035.726590 -850.734296,24077.633379 -854.543052,24121.205451 -842.604796,24155.860684 -813.163388,24198.568986 -772.919475,24233.514468 -722.513853,24257.447766 -674.917797,24278.403676 -629.249698,24302.384452 -592.019832,24336.233117 -570.159513,24364.764865 -535.533289,24430.680854 -523.381888,24480.795636 -517.824474,24543.006622 -515.588902,24582.999504 -516.801023,24632.281170 -519.082393,24697.656623 -517.580266,24747.670996 -515.731111,24802.616539 -502.800202,24887.121824 -475.615787,24973.884136 -459.669601,25008.682063 -439.142307,25064.809580 -407.220919,25143.949091 -387.224878,25207.388090 -367.226269,25275.316958 -350.130458,25316.846214 -334.081955,25385.351063 -317.930127,25458.721476 -307.687448,25514.526313 -305.727795,25543.837256 -304.568553,25575.683091 -302.811558,25611.176519 -303.479679,25635.441555 -304.914806,25676.916411 -304.612475,25721.880581 -308.695422,25748.047020 -330.985611,25782.385790 -351.124583,25817.945554 -382.685151,25865.295402 -412.179263,25907.817326 -434.224494,25957.294771 -458.878206,26011.767608 -482.574619,26068.006931 -491.206211,26094.574150 -495.575883,26121.150586 -500.452190,26152.240541 -518.121359,26232.204806 -523.451217,26289.029924 -542.752485,26371.100264 -569.172541,26482.221413 -581.871577,26558.532236 -591.787540,26658.334550 -610.320821,26741.895416 -624.855832,26822.480429 -628.988458,26850.637509 -638.652366,26902.023671 -656.906791,26986.357749 -662.134071,27018.620929 -667.925915,27054.557325 -682.683114,27105.627069 -701.243590,27139.965292 -719.826148,27166.993720 -744.619061,27201.350722 -763.056283,27228.865272 -775.421470,27265.595574 -795.995901,27303.909910 -808.956580,27345.087615 -830.766109,27384.998112 -845.978334,27406.398448 -870.754512,27446.373151 -894.383752,27488.589309 -916.304095,27535.854154 -927.273071,27565.756915 -932.660481,27600.077424 -935.512498,27634.511941 -932.902931,27670.279179 -923.048666,27718.675824 -900.508312,27796.373166 -866.847964,27894.274564 -859.333676,27922.894135 -852.440322,27954.855324 -849.593109,27992.335964 -853.082493,28035.696831 -857.255509,28079.966572 -869.417062,28136.657236 -880.177442,28199.138464 -891.661416,28260.294809 -897.791523,28290.658500 -910.954344,28426.698749 -916.511471,28459.869631 -918.023575,28523.937576 -918.971891,28584.066905 -901.311577,28625.605784 -886.576451,28662.586195 -834.600076,28729.213709 -777.972031,28770.756990 -748.695868,28809.584689 -727.139110,28847.285505 -718.745445,28877.483857 -720.522998,28919.534644 -745.159698,29006.143631 -762.585167,29042.723157 -777.757375,29077.614964 -795.152464,29124.313147 -789.962113,29156.887715 -762.646035,29210.197282 -728.515093,29273.030068 -712.534820,29319.063885 -702.230081,29358.932924 -703.252759,29394.346173 -722.944419,29432.060492 -749.045195,29466.332673 -799.999389,29504.240456 -852.145689,29543.335048 -909.703525,29597.839616 -953.701900,29640.680643 -984.737202,29664.937184 -1029.285071,29712.844684 -1065.914311,29761.845309 -1110.976372,29826.607780 -1119.949414,29854.170962 -1128.889514,29889.032813 -1129.336139,29928.381163 -1120.448182,29979.512266 -1101.323924,30021.931569 -1066.952438,30076.436601 -1041.958158,30112.324700 -1015.223577,30160.018321 -1001.551718,30193.131449 -986.657535,30235.143206 -977.746257,30297.709006 -975.902505,30347.711145 -980.249618,30393.230935 -995.501560,30453.447316 -1034.472527,30530.256542 -1068.491379,30600.891156 -1083.076954,30639.706808 -1094.630026,30670.849658 -1105.171783,30718.079945 -1110.971814,30770.172929 -1110.781673,30833.671654 -1107.864429,30865.136097 -1097.463367,30915.090466 -1080.644485,30978.760580 -1057.894782,31037.690856 -1030.342749,31114.300746 -993.270827,31197.959730 -937.465672,31326.427953 -871.321846,31465.426323 -843.826022,31523.170172 -829.383565,31588.019668 -829.164445,31661.172659 -838.269282,31722.487531 -852.590223,31772.151032 -869.020743,31838.276257 -875.142229,31905.089428 -865.039164,31977.493994 -826.775120,32063.516063 -788.524654,32141.277288 -751.491431,32215.503356 -726.050633,32300.435833 -724.964478,32345.209480 -742.594398,32410.155026 -798.177430,32489.380383 -849.946095,32544.729462 -898.471811,32588.711442 -959.416163,32641.157241 -1002.321263,32695.141515 -1028.415961,32754.372662 -1035.490419,32817.373304 -1039.267381,32898.356658 -1027.097506,32995.670382 -993.553033,33091.725947 -941.577907,33194.229020 -894.463147,33259.578175 -828.332203,33327.226021 -776.543539,33367.192411 -710.483379,33414.779831 -672.389835,33443.573530 -637.238611,33480.636904 -581.196932,33550.681358 -533.500089,33614.248206 -476.837411,33691.954493 -414.209123,33783.809190 -375.430843,33841.508370 -331.331581,33890.344601 -274.152312,33944.449869 -221.781260,33982.644874 -142.678377,34018.990370 -68.372705,34039.414460 30.867315,34060.360887 139.596401,34074.190016 251.874606,34082.700086 315.476921,34100.214254 373.765508,34128.946895 472.014612,34214.191568 621.587566,34379.237070"/>
    <poly id="303732927" type="water" color="181,209,209" fill="1" layer="-4.00" shape="2057.233028,14.058960 1980.095926,23.738207 1933.785011,19.163590 1869.591906,-6.576343 1723.349855,-74.510634 1663.914924,-100.265891 1613.181125,-114.348456 1576.431673,-97.720468 1544.474078,-66.952234 1531.537430,-29.177806 1528.980898,26.346476 1544.753981,132.440561 1566.315419,193.694143 1609.874643,265.483364 1687.831045,328.924227 1813.951366,415.800625 1824.756524,452.316258 1854.583162,499.399060 1870.559953,519.840552 1905.435918,623.651062 1920.463774,683.156004 1930.372970,723.224439 1931.766038,785.438007 1930.181388,843.812514 1929.660806,867.989170 1920.822803,889.836725 1909.033371,916.106212 1902.121545,927.784400 1850.093305,955.807552 1766.516283,990.267756 1725.090352,1029.327117 1694.941597,1068.925670 1672.446742,1128.406076 1654.348770,1223.991176 1636.947918,1312.640048 1635.306839,1356.870179 1643.246790,1428.496196 1638.466046,1470.159547 1627.524066,1505.538826 1612.117918,1542.889710 1593.572711,1595.301832 1574.157606,1652.560536 1575.173639,1690.301647 1567.831105,1716.258271 1504.816114,1762.386107 1463.094798,1781.827375 1414.620822,1810.878143 1375.666121,1826.926514 1351.088228,1861.342510 1334.468805,1886.056674 1329.760542,1912.281363 1329.699730,1983.921606 1330.491307,2038.207615 1345.852716,2164.817432 1356.469015,2236.136336 1383.109116,2318.242307 1408.270983,2391.284601 1472.749972,2506.646761 1557.431454,2631.400349 1632.435908,2698.379232 1717.001888,2783.022142 1746.042795,2819.424759 1772.808967,2881.756868 1774.471559,2934.978542 1759.222061,2993.993443 1722.627371,3060.153728 1688.691261,3039.912711 1716.382460,2964.645943 1719.725032,2895.052168 1703.841014,2848.134971 1663.541770,2803.285768 1523.107655,2663.347887 1469.386807,2597.739183 1413.509866,2511.656058 1369.278624,2448.007897 1345.304548,2376.145144 1304.149202,2169.019167 1295.856175,2066.075309 1297.012829,2036.466772 1291.505175,2005.939322 1288.798202,1989.746495 1299.983176,1961.101512 1299.264442,1898.366221 1302.100008,1853.833805 1315.331758,1818.115641 1329.813499,1796.250407 1348.150641,1775.854855 1383.635257,1733.286997 1417.797303,1709.855335 1446.376719,1677.660510 1471.261891,1663.426110 1511.571876,1645.603901 1538.795101,1621.939789 1558.858396,1584.131809 1575.324996,1535.729656 1581.747099,1408.044280 1585.432151,1355.845201 1589.431714,1305.127025 1617.617446,1236.173186 1636.978042,1133.970826 1649.162625,1085.737019 1668.301013,1035.545786 1682.478201,1015.461837 1704.485218,994.003801 1714.420576,979.683998 1743.106179,946.272051 1751.822973,941.964508 1792.910414,928.717897 1822.246203,915.364861 1838.053273,899.820918 1847.657194,878.722962 1870.507882,840.762107 1882.478533,815.808073 1888.737508,786.747198 1887.326286,753.585719 1877.840312,721.323597 1845.558458,646.844365 1831.050499,594.216475 1808.714627,547.021349 1765.567499,441.423475 1683.681807,381.169086 1602.694706,307.663090 1563.715084,263.296668 1529.561980,209.138743 1492.136315,145.369892 1487.311017,78.931744 1490.822472,-27.776577 1502.619007,-86.570511 1542.741322,-128.180383 1592.517360,-154.283116 1625.865920,-161.699216 1662.694157,-153.555336 1749.370634,-114.074120 1886.087511,-45.545557 1946.695113,-26.871995 2052.362283,-21.303318 2097.462902,-24.986033 2140.109075,-55.788744 2187.423286,-107.828673 2225.213563,-169.271612 2231.971651,-225.561537 2218.783487,-263.252846 2205.196871,-287.119093 2157.163710,-290.526773 2129.836659,-296.334021 1967.351087,-249.821263 1928.158907,-253.235209 1896.035976,-277.893957 1861.072950,-311.844296 1835.729520,-396.608278 1831.422311,-435.721336 1809.049823,-470.154159 1796.874266,-544.354499 1789.532161,-584.442132 1820.839585,-603.817765 1849.610866,-658.607355 1841.035872,-773.029747 1809.243129,-836.506647 1737.174336,-990.196210 1708.498522,-1047.843889 1723.651995,-1098.133268 1739.061021,-1106.432413 1771.134400,-1100.640225 1907.252407,-1226.085573 1938.299949,-1170.756865 1831.755941,-1077.255743 1786.088910,-1025.928992 1798.134375,-971.722947 1848.935663,-901.593857 1885.513932,-815.593964 1905.187041,-756.723212 1894.543344,-746.072609 1905.502986,-657.657549 1880.840846,-573.851104 1874.407312,-544.115022 1888.051281,-422.365590 1918.357248,-322.046338 1941.079959,-299.270847 1973.146523,-292.295312 2024.177489,-299.535820 2104.753103,-344.604037 2179.506752,-358.998184 2211.592169,-346.128380 2248.488250,-316.762816 2283.091812,-263.801025 2292.724904,-220.192842 2284.561973,-174.183309 2250.342228,-110.385079 2169.860598,-32.294764 2122.463763,-2.660193 2057.233028,14.058960"/>
    <poly id="359244615" type="commercial" color="209,209,204" fill="1" layer="-3.00" shape="1628.044138,1094.319525 1256.479166,1082.493119 1278.271985,1049.269222 1316.329025,973.648902 1324.740923,956.934223 1345.473668,875.596009 1356.729659,771.804926 1370.357132,616.858500 1361.250930,578.645435 1334.752116,520.083749 1319.933628,498.455172 1308.913594,484.777006 1318.925376,459.685581 1333.272959,399.191643 1389.411940,411.399482 1401.820591,395.435140 1415.941269,354.118158 1436.891068,316.904478 1464.573203,340.405367 1468.487522,360.442882 1499.418869,379.211252 1524.036505,375.008027 1522.659634,408.322088 1569.271353,413.482279 1608.833105,442.541221 1626.419380,464.603310 1643.308972,518.119404 1705.826032,576.909338 1743.087400,568.009991 1770.166072,683.490455 1737.805525,695.559209 1744.792681,721.492470 1758.769200,739.253020 1785.511319,748.899896 1805.399999,750.307485 1813.979598,741.145456 1821.919461,718.714651 1835.976050,705.985251 1850.755412,732.623614 1856.017643,755.454782 1856.965499,771.664273 1851.268670,803.521281 1843.479979,824.779353 1834.899910,833.797619 1823.564359,863.615579 1810.577163,882.081188 1728.189115,921.558365 1715.601571,930.003216 1706.283372,940.052286 1682.311855,970.076236 1659.565871,995.772207 1593.941711,986.547346 1589.987977,1048.180616 1639.731483,1053.275647 1635.706927,1068.218075 1628.044138,1094.319525"/>
    <poly id="396051488" type="building" color="255,230,230" fill="1" layer="-1.00" shape="2969.672187,1943.149803 2945.236475,1938.726845 2939.711393,1968.836196 2928.856149,1975.771728 2906.933761,1971.805202 2901.128904,1962.832730 2907.219583,1929.647163 2882.163838,1925.104512 2873.169262,1974.135914 2880.388140,1975.439946 2893.154304,1995.150646 2933.932178,2002.529492 2951.976379,1990.992542 2960.601419,1992.557490 2969.672187,1943.149803"/>
    <poly id="396051489" type="building" color="255,230,230" fill="1" layer="-1.00" shape="3098.176728,1870.711325 3116.281087,1871.084728 3115.830833,1892.916768 3136.336533,1893.326722 3153.953954,1893.679554 3154.088068,1887.176392 3159.421978,1887.280979 3159.727638,1872.140134 3154.526514,1872.035123 3154.727189,1862.125554 3137.596690,1861.782227 3131.510265,1861.657927 3101.675747,1861.056628 3060.310252,1860.226767 3060.004921,1875.478194 3016.249124,1874.600646 3015.427623,1915.311682 3046.623306,1915.941859 3047.111733,1892.196486 3097.717560,1893.217995 3098.072445,1876.163779 3098.176728,1870.711325"/>
    <poly id="398041313" type="water" color="181,209,209" fill="1" layer="-4.00" shape="1535.261893,1436.027277 1533.547521,1425.803152 1533.690620,1418.592237 1536.199046,1410.544392 1540.209007,1401.441178 1545.595545,1393.749147 1548.606675,1387.203728 1549.088020,1378.487716 1548.533817,1364.245496 1546.322690,1357.882534 1542.446797,1349.954480 1535.358123,1344.303714 1535.336986,1341.129851 1546.203128,1341.128544 1546.445213,1333.729311 1535.468035,1333.609322 1535.383419,1331.353557 1548.850234,1331.454585 1557.212259,1333.883142 1562.463653,1339.395971 1563.490805,1345.762689 1561.168487,1356.663166 1561.114224,1391.864106 1553.592714,1417.190945 1552.954970,1428.926558 1549.967244,1442.848248 1547.435446,1443.530880 1537.137870,1441.384934 1535.261893,1436.027277"/>
    <poly id="398041322" type="building" color="255,230,230" fill="1" layer="-1.00" shape="1173.946166,1600.436174 1166.068702,1586.792227 1104.402078,1621.933759 1112.268428,1635.566688 1104.470364,1640.014953 1118.200265,1663.792517 1146.653317,1647.578488 1150.793148,1655.008070 1153.796413,1659.941923 1176.373318,1647.086286 1173.533580,1641.377788 1169.230182,1634.711794 1203.073421,1615.439447 1189.343487,1591.661897 1173.946166,1600.436174"/>
    <poly id="398041325" type="building" color="255,230,230" fill="1" layer="-1.00" shape="1260.678631,1454.426346 1276.670491,1486.634712 1334.154154,1458.462284 1318.162261,1426.253927 1260.678631,1454.426346"/>
    <poly id="398041325#1" type="shop" color="237,199,255" fill="1" layer="-1.00" shape="1260.678631,1454.426346 1276.670491,1486.634712 1334.154154,1458.462284 1318.162261,1426.253927 1260.678631,1454.426346"/>
    <poly id="398041326" type="building" color="255,230,230" fill="1" layer="-1.00" shape="1054.101661,1535.346405 1054.194319,1564.630250 1047.005944,1565.924774 1040.490580,1570.092500 1037.793663,1574.546735 1038.157713,1581.192021 1041.425341,1585.749035 1047.839248,1587.984771 1068.066417,1591.393287 1089.076813,1590.541616 1105.644352,1584.406753 1108.547159,1582.075183 1111.244806,1577.853179 1111.075647,1573.352714 1108.768484,1568.095948 1103.345265,1564.220356 1097.621881,1563.397988 1097.545616,1539.300741 1102.899926,1538.885672 1108.576391,1535.373072 1111.215944,1530.277593 1111.677572,1525.797250 1109.262487,1521.403425 1106.521396,1518.890657 1090.398573,1511.698063 1069.489163,1509.486089 1049.080239,1511.574462 1042.535298,1513.386723 1038.974914,1517.722043 1038.165911,1524.326804 1040.570660,1528.952901 1046.792805,1533.533743 1054.101661,1535.346405"/>