<?xml version="1.0" encoding="UTF-8"?>

<!-- generated on 03/04/21 19:15:30 by Eclipse SUMO duarouter Version 1.8.0
<configuration xmlns:xsi="http://www.w3.org/2001/XMLSchema-instance" xsi:noNamespaceSchemaLocation="http://sumo.dlr.de/xsd/duarouterConfiguration.xsd">

    <input>
        <net-file value="map-bsd2.net.xml"/>
        <route-files value="trips.trips.xml"/>
    </input>

    <output>
        <output-file value="route_maps-bsd21.rou.xml"/>
        <alternatives-output value="route_maps-bsd21.rou.alt.xml"/>
    </output>

    <time>
        <begin value="0"/>
        <end value="500"/>
    </time>

    <report>
        <no-warnings value="true"/>
        <ignore-errors value="true"/>
        <no-step-log value="true"/>
    </report>

</configuration>
-->

<routes xmlns:xsi="http://www.w3.org/2001/XMLSchema-instance" xsi:noNamespaceSchemaLocation="http://sumo.dlr.de/xsd/routes_file.xsd">
    <vehicle id="0" depart="0.00">
        <route edges="479605457#0 479605457#1 833506428 675107656 -479605474#0 816151375 479605475#1 479605475#2 479605475#3 479605466 757373595#2 775190280 359245321 359245322#0 359245322#1 359245322#2 359245322#3 359246022 766136200 766136199#0 766136199#1 766136198 264106336 264106329 776405490#0 776405490#1 756081032 758136380 749662141 757088117#0 757088117#1 757089161 757373598 757457244#0 757457244#1 757457244#2 359408298#0 359408298#1 359408298#2 359408301#0 359408301#1 359408279#0 -359408229#2"/>
    </vehicle>
    <vehicle id="2" depart="2.00">
        <route edges="562430406#1 562430406#2 562430406#3 562430406#4 562430406#5 562430406#6 562430406#7 562021795#4 562021795#5 757373596 757373599 757373597#0 757373597#1 757373600#0 757373600#1 757373600#2 757373600#3 757373598 771544256#3 775190282#0 775190282#1 775190281 757373595#0 757373595#1 757373595#2 775190280 359245321 359245322#0 359245322#1 359245322#2 359245322#3 359245322#4 359245322#5 359245322#6 359245322#7 398181550#1 398181550#2 398181550#3 -813038562 552423763#0 552423763#1 552423761#0 552423761#1 552423761#2 552423761#3"/>
    </vehicle>
    <vehicle id="3" depart="3.00">
        <route edges="757457244#3 479605450 154148013#2 757467200#0 757467200#1 775190282#0 775190282#1 775190281 757373595#0 757373595#1 757373595#2 775190280 359245321 359245322#0 359245322#1 362999570 362999571 -362999573#2 -362999573#1 362999576 -362999573#7"/>
    </vehicle>
    <vehicle id="4" depart="4.00">
        <route edges="359245322#11 359245322#12 359245322#13 359245322#14 359245322#15 359245322#16 359245322#17 359245322#18 359246033 756081033#2 766136205#0 766136205#1 766136205#2 766136205#3 766136205#4 766136205#5 766136205#6 766136205#7 766136205#8 766136205#9 766136204 766136203 766136202 766136201 766136200 766136199#0 766136199#1 766136198 264106336 264106329 776405490#0 776405490#1 756081032 758136380 749662141 757088117#0 757088117#1 757089161 757373598 757457244#0 757457244#1 757457244#2 359408298#0 359408298#1 359408298#2 359408301#0 359408301#1 -359408236#5"/>
    </vehicle>
    <vehicle id="5" depart="5.00">
        <route edges="-563175089#1 -359408305#2 -359408250 -359408298#3 -359408298#2 -359408298#1 -359408298#0 757457244#3 479605450 154148013#2 757467200#0 757467200#1 775190282#0 775190282#1 775190281 757373595#0 757373595#1 757373595#2 775190280 359245321 359245322#0 359245322#1 362999570 362999571 -362999573#2 -362999575 362999573#7"/>
    </vehicle>
    <vehicle id="6" depart="6.00">
        <route edges="-359408255 359408255 359408236#1 -359408301#2 -359408301#1 -359408301#0 -359408298#2 -359408298#1 -359408298#0 757457244#3 479605450 154148013#2 757467200#0 757467200#1 775190282#0 775190282#1 775190281 757373595#0 757373595#1 757373595#2 775190280 359245321 359245322#0 359245322#1 359245322#2 359245322#3 359245322#4 359245322#5 359245322#6 359245322#7 359245322#8 778737823 588529254#0 588529254#1 588529254#2 588529254#3 588529254#4 588529254#5 -264106317#6 -264106317#5 -264106317#4 -264106317#3 -264106317#2 396051490#0 396051490#1 842921424 842921423 563587566#0 563587566#1 563587566#2 -562549604#5 -562549604#4 -562549604#3 -562549604#2 -562549604#1 -562549604#0"/>
    </vehicle>
    <vehicle id="7" depart="7.00">
        <route edges="479605474#1 -479605474#1 -479605474#0 816151375 479605475#1 479605475#2 479605475#3 479605466 757373595#2 775190280 359245321 359245322#0 359245322#1 359245322#2 359245322#3 359245322#4 359245322#5 359245322#6 359245322#7 359245322#8 359245322#9 359245322#10 359245322#11 359245322#12 359245322#13 359245322#14 359245322#15 359245322#16 359245322#17 359245322#18 359245322#19 359245322#20 359245322#21 359245322#22 562631149 766156748#0 766156748#1 766156747 766156746 766156745#0 766156745#1 766156745#2 766156745#3 363002237#0 363002237#1 363002237#2 363002237#3 363002237#4 363002237#5 363002237#6 363002246#0 363002246#1 363002248#0"/>
    </vehicle>
    <vehicle id="8" depart="8.00">
        <route edges="-563587565 396051490#4 396051490#5 479612027#0 479612027#1 766136205#1 766136205#2 766136205#3 766136205#4 766136205#5 766136205#6 766136205#7 398181550#0 398181550#1 398181550#2 398181550#3 398181550#4 398181550#5"/>
    </vehicle>
    <vehicle id="9" depart="9.00">
        <route edges="60863226#2 60863226#3 -52520671#7 60863228#3 60863228#4 60863228#5 60863228#6 754707679#0 754707679#1 754707682#1 754707682#2 754707682#3 754707682#4 756050842 682641313 756081033#0 756081033#1 756081033#2 766136205#0 766136205#1 766136205#2 766136205#3 766136205#4 766136205#5 766136205#6 588529254#0 588529254#1 588529254#2 588529254#3 588529254#4 588529254#5 -264106317#6 -264106317#5 -264106317#4 -264106317#3 -264106317#2 -264106317#1 -264106317#0"/>
    </vehicle>
    <vehicle id="10" depart="10.00">
        <route edges="60863226#0 77777498#1 60863228#5 60863228#6 754707679#0 754707679#1 754707682#1 754707682#2 754707682#3 754707682#4 756050842 682641313 756050839#3 55678885#0 55678885#1 55678885#2 55678885#3"/>
    </vehicle>
    <vehicle id="11" depart="11.00">
        <route edges="-77779326 -77779019#5 -77779019#4 536702868 907610409 562631092 907596595 77777386#7 77777386#8 77777386#9 -77777846#5 -77777846#4 -77777846#3 -77777846#2 -77777846#1 77777461#3 -480753663"/>
    </vehicle>
    <vehicle id="12" depart="12.00">
        <route edges="77777846#0 -77777461#2 -77777461#1 -77777084#2 -77777084#1 77777498#0 77777498#1 60863228#5 60863228#6 754707679#0 754707679#1 754707682#1 754707682#2 754707682#3 754707682#4 756050842 682641313 756081033#0 756081033#1 756081033#2 766136205#0 766136205#1 766136205#2 766136205#3 766136205#4 766136205#5 766136205#6 588529254#0 588529254#1 588529254#2 588529254#3 588529254#4 588529254#5 -264106317#6 -264106317#5 -264106317#4 -264106317#3 -264106317#2 396051490#0 396051490#1 842921424 842921423 563587566#0 -563587566#0 -842921423"/>
    </vehicle>
    <vehicle id="15" depart="15.00">
        <route edges="60863226#1 -907610409 60863228#4 60863228#5 60863228#6 754707679#0 754707679#1 754707682#1 754707682#2 754707682#3 754707682#4 756050842 682641313 756081033#0 756081033#1 756081033#2 766136205#0 766136205#1 766136205#2 766136205#3 766136205#4 766136205#5 766136205#6 588529254#0 588529254#1 588529254#2 588529254#3 588529254#4 588529254#5 -264106317#6 -264106317#5 -264106317#4 -264106317#3 -264106317#2 -562046305#4 -562046305#3 -562046305#2 -562046305#1 -814592008 562046790#1 562046789 -814592009#1 -814592009#0 814592009#0 562046787"/>
    </vehicle>
    <vehicle id="17" depart="17.00">
        <route edges="154148014#0 154148014#1 154148014#2 562021790#0 562021790#1 757390879#0 757390879#1 562021795#0 562021795#1 562021795#2 562021795#3 562021795#4 562021795#5 757373596 757373599 757373597#0 757373597#1 757373600#0 757373600#1 757373600#2 757373600#3 757373598 771544256#3 775190282#0 775190282#1 775190281 757373595#0 757373595#1 757373595#2 775190280 359245321 359245322#0 359245322#1 359245322#2 359245322#3 359245322#4 359245322#5 359245322#6 359245322#7 359245322#8 359245322#9 359245322#10 359245322#11 359245322#12 359245322#13 359245322#14 359245322#15 359245322#16 359245322#17 359245322#18 359245322#19 359245322#20 359245322#21 359245322#22 562631149 766156748#0 766156748#1 766156747 766156746 766156745#0 766156745#1 766156745#2 766156745#3 766156745#4 754707680#0 754707680#1 60863226#0 -77777498#0 77777084#1 392657307#1"/>
    </vehicle>
    <vehicle id="18" depart="18.00">
        <route edges="697060685#0 697060685#1 697060685#2 697060685#3 359408240#3 359408254 -359408298#1 -359408298#0 757457244#3 479605450 154148013#2 757467200#0 757467200#1 775190282#0 775190282#1 775190281 757373595#0 479605465 479605475#5 816151374 479605474#0 -675107656 -833506428 -479605457#1 479605457#1"/>
    </vehicle>
    <vehicle id="19" depart="19.00">
        <route edges="754707682#1 754707682#2 754707682#3 754707682#4 756050842 682641313 756081033#0 756081033#1 756081033#2 766136205#0 766136205#1 766136205#2 766136205#3 766136205#4 766136205#5 766136205#6 766136205#7 766136205#8 766136205#9 766136204 766136203 766136202 766136201 766136200 766136199#0 766136199#1 766136198 264106336 264106329 776405490#0 776405490#1 756081032 758136380 749662141 757088117#0 757088117#1 757089161 756081030#0 756081030#1 362347492#0 398041366#0 398041366#1 398041366#2 398041366#3 398041366#4 398041366#5"/>
    </vehicle>
    <vehicle id="20" depart="20.00">
        <route edges="552423763#1 -552423763#1 -552423763#0 813038562 398181550#4 817427531 168328149#1 168328149#2 168328149#3 168328149#4 168328149#5 168328149#6 168328149#7 168328149#8 168328149#9 168328149#10 168328149#11 168328149#12 562631155 778737823 766136205#7 766136205#8 766136205#9 766136204 766136203 766136202 766136201 766136200 766136199#0 766136199#1 766136198 264106336 264106329 776405490#0 776405490#1 756081032 758136380 749662141 757088117#0 757088117#1 757089161 757373598 757457244#0 757457244#1 757457244#2 359408298#0 359408298#1 359408298#2 359408301#0 359408301#1 -359408301#1"/>
    </vehicle>
    <vehicle id="24" depart="24.00">
        <route edges="470465976 -359408298#0 757457244#3 479605450 154148013#2 757467200#0 757467200#1 775190282#0 775190282#1 775190281 757373595#0 757373595#1 757373595#2 775190280 359245321 359245322#0 359245322#1 359245322#2 359245322#3 359246022 766136200 766136199#0 766136199#1 766136198 264106336 264106329"/>
    </vehicle>
    <vehicle id="25" depart="25.00">
        <route edges="154148013#2 757467200#0 757467200#1 757467199 757089161 757373598 757457244#0 757457244#1 757457244#2 359408298#0 359408298#1 359408298#2 359408298#3 359408250 359408305#2 359408305#3 -563175089#1"/>
    </vehicle>
    <vehicle id="27" depart="27.00">
        <route edges="479605474#0 -479605474#0 816151375 479605475#1 479605475#2 479605475#3 479605466 757373595#2 775190280 359245321 359245322#0 359245322#1 359245322#2 359245322#3 359245322#4 359245322#5 359245322#6 359245322#7 359245322#8 359245322#9 359245322#10 359245322#11 359245322#12 359245322#13 359245322#14 359245322#15 359245322#16 359245322#17 359245322#18 359245322#19 359245322#20 359245322#21 359245322#22 562631149 766156748#0 766156748#1 766156747 766156746 766156745#0 766156745#1 766156745#2 766156745#3 766156745#4 46560873#0"/>
    </vehicle>
    <vehicle id="28" depart="28.00">
        <route edges="-536702868 536702868 60863228#4 60863228#5 60863228#6 754707679#0 754707679#1 754707682#1 754707682#2 754707682#3 754707682#4 756050842 682641313 756081033#0 756081033#1 756081033#2 766136205#0 766136205#1 766136205#2 766136205#3 766136205#4 766136205#5 766136205#6 588529254#0 588529254#1 588529254#2 588529254#3 588529254#4 588529254#5 -264106317#6 -264106317#5 -264106317#4 -264106317#3 -264106317#2 -562046305#4 562046305#4"/>
    </vehicle>
    <vehicle id="30" depart="30.00">
        <route edges="813038568#0 -813038568#0 552423759#4 -552423761#1 -552423761#0 -552423763#1 -552423763#0 813038562 398181550#4 817427531 168328149#1 168328149#2 168328149#3 168328149#4 168328149#5 168328149#6 168328149#7 168328149#8 168328149#9 168328149#10 168328149#11 168328149#12 562631154#0 562631154#1 359245322#11 359245322#12 359245322#13 359245322#14 359245322#15 359245322#16 359245322#17 359245322#18 359245322#19 359245322#20 359245322#21 359245322#22 562631149 766156748#0 766156748#1 766156747 766156746 766156745#0 766156745#1 766156745#2 766156745#3 766156745#4 754707680#0 754707680#1 60863226#0 60863226#1 60863226#2 60863226#3 60863226#4 60863226#5 754709428#0 754709428#1 -77778100#3 -77778100#2 -77778140 -77778100#0 52520671#2"/>
    </vehicle>
    <vehicle id="31" depart="31.00">
        <route edges="363002238#5 363002238#6 754707680#0 754707682#0 754707682#1 754707682#2 754707682#3 754707682#4 756050842 756050841#0 756050841#1 554170826#0 554170826#1 554170826#2 554170826#3"/>
    </vehicle>
    <vehicle id="34" depart="34.00">
        <route edges="-77777498#2 60863228#5 60863228#6 754707679#0 754707679#1 754707682#1 754707682#2 754707682#3 754707682#4 756050842 682641313 756081033#0 756081033#1 756081033#2 766136205#0 766136205#1 766136205#2 766136205#3 766136205#4 766136205#5 766136205#6 766136205#7 766136205#8 766136205#9 766136204 766136203 766136202 766136201 766136200 766136199#0 766136199#1 766136198 264106336 264106329 776405490#0 776405490#1 756081032 758136380 749662141 757088117#0 757088117#1 757089161 757373598 757457244#0 757457244#1 757457244#2 359408298#0 359408298#1 -359408254 359408240#4 359408240#0 359408240#1 359408240#2 -697060685#3"/>
    </vehicle>
    <vehicle id="35" depart="35.00">
        <route edges="-562631109 -552423758#3 -552423758#2 -552423758#1 562631110 552423757#2 562631152 552423759#3 552423759#4 -552423761#1 -552423761#0 -552423763#1 -552423763#0 813038562 398181550#4 817427531 168328149#1 168328149#2 168328149#3 168328149#4 168328149#5 168328149#6 168328149#7 168328149#8 168328149#9 168328149#10 168328149#11 168328149#12 562631154#0 562631154#1 359245322#11 359245322#12 359245322#13 359245322#14 359245322#15 359245322#16 359245322#17 359245322#18 359245322#19 359245322#20 359245322#21 359245322#22 562631149 766156748#0 766156748#1 766156747 766156746 766156745#0 766156745#1 766156745#2 766156745#3 766156745#4 754707680#0 754707680#1 60863226#0 -77777498#0 77777084#1 77777084#2 77777461#1 77777461#2 77777461#3 77777461#4"/>
    </vehicle>
    <vehicle id="36" depart="36.00">
        <route edges="756050840#0 756050840#1 756050840#2 756050839#0 756050839#1 756050839#2 756050839#3 562631149 766156748#0 766156748#1 766156747 766156746 766156745#0 766156745#1 766156745#2 766156745#3 766156745#4 754707680#0 754707680#1 60863226#0 60863226#1 60863226#2 60863226#3 -52520671#7 -52520671#6 -77778279"/>
    </vehicle>
    <vehicle id="37" depart="37.00">
        <route edges="479612027#0 479612027#1 766136205#1 766136205#2 766136205#3 766136205#4 766136205#5 766136205#6 766136205#7 766136205#8 766136205#9 766136204 766136203 766136202 766136201 766136200 766136199#0 766136199#1 766136198 359246020 359245322#1 359245322#2 359245322#3 359246022"/>
    </vehicle>
    <vehicle id="38" depart="38.00">
        <route edges="766136205#4 766136205#5 766136205#6 766136205#7 766136205#8 766136205#9 766136204 766136203 766136202 766136201 766136200 766136199#0 766136199#1 766136198 264106336 264106329 776405490#0 776405490#1 756081032 758136380 749662141 757088117#0 757088117#1 757089161 757373598 757457244#0 757457244#1 757457244#2 359408298#0 359408298#1 -359408254 359408240#4 359408240#0 359408246 359408303#2"/>
    </vehicle>
    <vehicle id="39" depart="39.00">
        <route edges="-588829929 562549604#1 562549604#2 562549604#3 562549604#4 562549604#5 -563587566#2 -563587566#1 -563587566#0 -842921423 -842921424 -396051490#1 -396051490#0 264106317#2 264106317#3 264106317#4 264106317#5 264106317#6 396051491#0 396051491#1 396051491#2 396051491#3 396051491#4 396051491#5 766136204 766136203 766136202 766136201 766136200 766136199#0 766136199#1 766136198 264106336 264106329 776405490#0 776405490#1 756081032 758136380 749662141 757088117#0 757088117#1 757089161 757373598 771544256#3 775190282#0 775190282#1 775190281 757373595#0 479605465 479605475#5 816151374 479605474#0 -675107656 697072223 833506427#0 833506427#1 833506427#2 -587915375"/>
    </vehicle>
    <vehicle id="40" depart="40.00">
        <route edges="363002246#2 363002247#1 363002247#2 739462179#1 739462179#2 739462179#3 739462179#4 739462179#5 756043918 756043919#0 756043919#1 756043919#2 756043919#3 756050844#0 756050844#1 739766913#0 739766913#1 682641313 756081033#0 756081033#1 756081033#2 766136205#0 766136205#1 766136205#2 766136205#3 766136205#4 766136205#5 766136205#6 766136205#7 766136205#8 766136205#9 766136204 766136203 766136202 766136201 766136200 766136199#0 766136199#1 766136198 264106336 264106329 776405490#0 776405490#1 756081032 758136380 749662141 757088117#0 757088117#1 757089161 757373598 757457244#0 757457244#1 757457244#2 359408298#0 359408298#1 -359408254 359408240#4 359408276#0 359408276#1 359408276#2 697060685#0 -697060685#0"/>
    </vehicle>
    <vehicle id="41" depart="41.00">
        <route edges="396051491#4 396051491#5 766136204 766136203 766136202 766136201 766136200 362995550 362995551#0 362995551#1 362995551#2 -359246031#2 -359246031#1 -359246031#0 760609832#1 760609832#2"/>
    </vehicle>
    <vehicle id="44" depart="44.00">
        <route edges="-362999573#6 -362999573#5 -362999573#4 -362999573#3 -362999571 563175123 359245322#3 359246022 766136200 766136199#0 766136199#1 766136198 264106336 264106329 776405490#0 776405490#1 756081032 758136380 749662141 757088117#0 757088117#1 757089161 757373598 757457244#0 757457244#1 757457244#2 359408298#0 359408298#1 359408298#2 359408301#0 359408301#1 359408301#2 359408236#2 -359408249 697060684#0 697060684#1 -359408302#1"/>
    </vehicle>
    <vehicle id="47" depart="47.00">
        <route edges="-362995551#0 562631153 766136199#1 766136198 359246020 359245322#1 359245322#2 359245322#3 359245322#4 359245322#5 359245322#6 359245322#7 359245322#8 359245322#9 359245322#10 359245322#11 359245322#12 359245322#13 359245322#14 359245322#15 359245322#16 359245322#17 359245322#18"/>
    </vehicle>
    <vehicle id="48" depart="48.00">
        <route edges="833506428 675107656 -479605474#0 816151375 479605475#1 479605475#2 479605475#3 479605466 757373595#2 775190280 359245321 359245322#0 359245322#1 359245322#2 359245322#3 359245322#4 359245322#5 359245322#6 359245322#7 359245322#8 359245322#9 359245322#10 359245322#11 359245322#12 359245322#13 359245322#14 359245322#15 359245322#16 359245322#17 359245322#18 359245322#19 359245322#20 359245322#21 359245322#22 562631149 766156748#0 766156748#1 766156747 766156746 766156745#0 766156745#1 766156745#2 766156745#3 363002237#0 363002237#1 363002237#2 363002237#3 363002237#4 363002237#5 363002237#6 363002237#7"/>
    </vehicle>
    <vehicle id="49" depart="49.00">
        <route edges="77778564 674874418 674874417 826376958 -77777498#2 60863228#5 60863228#6 754707679#0 754707679#1 754707679#2 363002237#0 363002237#1 363002237#2 363002237#3 363002237#4 363002237#5 363002237#6 363002246#0 363002246#1 363002246#2 363002247#1 363002247#2 739462179#1"/>
    </vehicle>
    <vehicle id="50" depart="50.00">
        <route edges="-359244585 359244580#2 359244580#3 359244580#4 359244580#5 359244580#6 729090489 154148014#2 562021790#0 562021790#1 757390879#0 757390879#1 562021795#0 562021795#1 562021795#2 562021795#3 562021795#4 562021795#5 757373596 757373599 757373597#0 757373597#1 757373600#0 757373600#1 757373600#2 757373600#3 757373598 771544256#3 757467199 562021794#0 562021794#1 562021794#2 562021794#3"/>
    </vehicle>
    <vehicle id="54" depart="54.00">
        <route edges="359247813#5 359247813#6 398041363#0 562430406#2 562430406#3 562430406#4 562430406#5 562430406#6 562430406#7 562021795#4 562021795#5 757373596 757373599 757373597#0 757373597#1 757373600#0 757373600#1 757373600#2 757373600#3 757373598 771544256#3 775190282#0 775190282#1 775190281 757373595#0 757373595#1 757373595#2 775190280 359245321 359245322#0 359245322#1 359245322#2 359245322#3 359245322#4 359245322#5 359245322#6 359245322#7 359245322#8 359245322#9 359245322#10 359245322#11 359245322#12 359245322#13 359245322#14 359245322#15 359245322#16 359245322#17 359245322#18 359245322#19 359245322#20 359245322#21 359245322#22 562631149 766156748#0 766156748#1 766156747 766156746 766156745#0 766156745#1 766156745#2 766156745#3 766156745#4 754707680#0 754707680#1 60863226#0 60863226#1 60863226#2 60863226#3 60863226#4 60863226#5 754709428#0 754709428#1 -77778100#3 -77778100#2 -77778100#1 77778140"/>
    </vehicle>
    <vehicle id="55" depart="55.00">
        <route edges="756050840#0 756050840#1 756050840#2 756050839#0 756050839#1 756050839#2 756081033#0 756081033#1 756081033#2 766136205#0 766136205#1 766136205#2 766136205#3 766136205#4 766136205#5 766136205#6 766136205#7 766136205#8 766136205#9 766136204 766136203 766136202 766136201 766136200 766136199#0 766136199#1 766136198 264106336 264106329 776405490#0 776405490#1 756081032 758136380 749662141 757088117#0 757088117#1 757089161 757373598 757457244#0 757457244#1 757457244#2 359408298#0 359408298#1 -359408254 359408240#4 359408276#0 359408276#1 359408276#2 697060685#0 -697060685#0"/>
    </vehicle>
    <vehicle id="56" depart="56.00">
        <route edges="362995551#2 -359246031#2 359246031#2 -362995551#2 -362995551#1 -362995551#0 562631153 766136199#1 766136198 359246020 359245322#1 359245322#2 359245322#3 359245322#4 359245322#5 359245322#6 359245322#7 398181550#1 398181550#2 398181550#3 -813038562 552423763#0 552423763#1 552423761#0 552423761#1 -552423759#4 -552423759#3 -552423759#2"/>
    </vehicle>
    <vehicle id="58" depart="58.00">
        <route edges="-77777084#3 -77777084#2 -77777084#1 77777498#0 60863226#1 60863226#2 60863226#3 60863226#4 60863226#5 754709428#0 754709428#1 -77778100#3 -77778100#2 -77778140 -77778100#0 52520671#2"/>
    </vehicle>
    <vehicle id="60" depart="60.00">
        <route edges="563587566#2 -563587566#2 -563587566#1 -563587566#0 -842921423 -842921424 396051490#2 396051490#3 396051490#4 396051490#5 479612027#0 479612027#1 766136205#1 766136205#2 766136205#3 766136205#4 766136205#5 766136205#6 766136205#7 398181550#0 359245322#8 359245322#9 359245322#10 359245322#11 359245322#12 359245322#13 359245322#14 359245322#15 359245322#16 359245322#17 359245322#18 359245322#19 359245322#20 359245322#21 359245322#22 562631149 766156748#0 766156748#1 766156747 766156746 766156745#0 766156745#1 766156745#2 766156745#3 363002237#0 363002237#1 363002237#2 363002237#3 363002237#4 363002237#5 363002237#6 363002246#0 363002246#1 363002246#2"/>
    </vehicle>
    <vehicle id="62" depart="62.00">
        <route edges="-168328152#1 -168328152#0 168328149#2 168328149#3 168328149#4 168328149#5 168328149#6 168328149#7 168328149#8 168328149#9 168328149#10 168328149#11 168328149#12 562631154#0 562631154#1 359245322#11 359245322#12 359245322#13 359245322#14 359245322#15 359245322#16 359245322#17 359245322#18 359245322#19 359245322#20 359245322#21 359245322#22 562631149 766156748#0 766156748#1 766156747 766156746 766156745#0 766156745#1 766156745#2 766156745#3 766156745#4 754707680#0 754707680#1 60863226#0 60863226#1 -907610409 -536702868 77779019#4 -77779287"/>
    </vehicle>
    <vehicle id="63" depart="63.00">
        <route edges="-359408229#2 -359408301#0 -359408298#2 -359408298#1 -359408298#0 757457244#3 479605450 154148013#2 757467200#0 757467200#1 775190282#0 775190282#1 775190281 757373595#0 757373595#1 757373595#2 775190280 359245321 359245322#0 359245322#1 359245322#2 359245322#3 359245322#4 359245322#5 359245322#6 359245322#7 359245322#8 359245322#9 359245322#10 359245322#11 359245322#12 359245322#13 359245322#14 359245322#15 359245322#16 359245322#17 359245322#18 359245322#19 359245322#20 359245322#21 359245322#22 562631149 766156748#0 766156748#1 766156747 766156746 766156745#0 766156745#1 766156745#2 766156745#3 766156745#4 754707680#0 754707680#1 60863226#0 -77777498#0 77777084#1 77777084#2 77777084#3 77777084#4"/>
    </vehicle>
    <vehicle id="66" depart="66.00">
        <route edges="756050840#2 756050839#0 756050839#1 756050839#2 756050839#3 562631149 766156748#0 766156748#1 766156747 766156746 766156745#0 766156745#1 766156745#2 766156745#3 766156745#4 754707680#0 754707680#1 60863226#0 -77777498#0 77777084#1 77777084#2 77777461#1 77777461#2 77777846#1"/>
    </vehicle>
    <vehicle id="67" depart="67.00">
        <route edges="-362999573#1 362999573#1 362999573#2 -362999571 563175123 359245322#3 359246022 766136200 362995550 362995551#0 697063413#0 362995558#2 362995558#3 362995558#4 362995556#1"/>
    </vehicle>
    <vehicle id="68" depart="68.00">
        <route edges="-362995555#2 362995555#2 -362995558#3 362995552#1 -362995551#1 -362995551#0 562631153 766136199#1 766136198 264106336 264106329 776405490#0 776405490#1 756081032 758136380 749662141 757088117#0 757088117#1 757089161 757373598 757457244#0 757457244#1 757457244#2 359408298#0 359408298#1 359408298#2 359408298#3 359408250 359408305#2 563175089#1"/>
    </vehicle>
    <vehicle id="69" depart="69.00">
        <route edges="564196757 60863228#1 60863228#2 60863228#3 60863228#4 60863228#5 60863228#6 754707679#0 754707679#1 754707682#1 754707682#2 754707682#3 396049400 766156747 398181537#0 -398181537#0"/>
    </vehicle>
    <vehicle id="70" depart="70.00">
        <route edges="359408279#2 359408279#3 359408279#4 359408249 -359408236#2 -359408301#2 -359408301#1 -359408301#0 -359408298#2 -359408298#1 -359408298#0 757457244#3 479605450 154148013#2 757467200#0 757467200#1 775190282#0 775190282#1 775190281 757373595#0 757373595#1 757373595#2 775190280 359245321 359245322#0 359245322#1 359245322#2 359245322#3 359245322#4 359245322#5 359245322#6 359245322#7 359245322#8 359245322#9 359245322#10 359245322#11 359245322#12 359245322#13 359245322#14 359245322#15 359245322#16 359245322#17 359245322#18 359245322#19 359245322#20 359245322#21 359245322#22 562631149 766156748#0 766156748#1 766156747 766156746 766156745#0 766156745#1 766156745#2 766156745#3 766156745#4 754707680#0 754707680#1 60863226#0 -77777498#0 77777084#1 392657307#1 392657305#1"/>
    </vehicle>
    <vehicle id="72" depart="72.00">
        <route edges="359245322#16 359245322#17 359245322#18 359246033 756081033#2 766136205#0 766136205#1 766136205#2 766136205#3 766136205#4 766136205#5 766136205#6 588529254#0 588529254#1 588529254#2 588529254#3 588529254#4 588529254#5 -264106317#6 -264106317#5 -264106317#4 -264106317#3 -264106317#2 396051490#0 396051490#1 842921424 842921423 563587566#0 563587566#1 -563587565"/>
    </vehicle>
    <vehicle id="78" depart="78.00">
        <route edges="-77779287 77779019#3 536702868 60863228#4 60863228#5 60863228#6 754707679#0 754707679#1 754707682#1 754707682#2 754707682#3 754707682#4 756050842 682641313 756081033#0 756081033#1 756081033#2 766136205#0 766136205#1 766136205#2 766136205#3 766136205#4 766136205#5 766136205#6 766136205#7 398181550#0 398181550#1 398181550#2 398181550#3 398181550#4"/>
    </vehicle>
    <vehicle id="79" depart="79.00">
        <route edges="-56462935#2 -56462935#1 -56462935#0"/>
    </vehicle>
    <vehicle id="80" depart="80.00">
        <route edges="-362995555#3 -362995558#3 362995552#1 -362995551#1 -362995551#0 562631153 766136199#1 766136198 359246020 359245322#1 359245322#2 359245322#3 359245322#4 359245322#5 359245322#6 359245322#7 359245322#8 778737823 588529254#0 588529254#1 588529254#2 588529254#3 588529254#4 588529254#5 -264106317#6 -264106317#5 -264106317#4 -264106317#3 -264106317#2 396051490#0 396051490#1 396051490#2 396051490#3 396051490#4 396051490#5 479612027#0"/>
    </vehicle>
    <vehicle id="82" depart="82.00">
        <route edges="754707680#1 60863226#0 77777498#1 60863228#5 60863228#6 754707679#0 754707679#1 754707682#1 754707682#2 754707682#3 754707682#4 756050842 682641313 756081033#0 756081033#1 756081033#2 766136205#0 766136205#1 766136205#2 766136205#3 766136205#4 766136205#5 766136205#6 766136205#7 766136205#8 766136205#9 766136204 766136203 766136202 766136201 766136200 362995550 362995551#0 697063413#0 362995558#2 362995558#3 362995558#4 362995558#5 -362995557#0"/>
    </vehicle>
    <vehicle id="85" depart="85.00">
        <route edges="77777084#0 77777498#0 77777498#1 60863228#5 60863228#6 754707679#0 754707679#1 754707682#1 754707682#2 754707682#3 754707682#4 756050842 682641313 756081033#0 756081033#1 756081033#2 766136205#0 766136205#1 766136205#2 766136205#3 766136205#4 766136205#5 766136205#6 766136205#7 766136205#8 766136205#9 766136204 766136203 766136202 766136201 766136200 766136199#0 766136199#1 766136198 264106336 264106329 776405490#0 776405490#1 756081032 758136380 749662141 757088117#0 757088117#1 757089161 756081030#0 756081030#1 362347492#0 362347492#1 362347492#2 362347492#3 398041367#0 398041367#1 398041367#2 398041367#3 359247810#6 398041363#3 398041363#4 398041363#5 398041363#6"/>
    </vehicle>
    <vehicle id="87" depart="87.00">
        <route edges="60863226#1 -907610409 60863228#4 60863228#5 60863228#6 754707679#0 754707679#1 754707682#1 754707682#2 754707682#3 754707682#4 756050842 682641313 756081033#0 756081033#1 756081033#2 766136205#0 766136205#1 766136205#2 766136205#3 766136205#4 766136205#5 766136205#6 588529254#0 588529254#1 588529254#2 588529254#3 588529254#4 588529254#5 -264106317#6 -264106317#5 -264106317#4 -264106317#3 -264106317#2 -562046305#4"/>
    </vehicle>
    <vehicle id="88" depart="88.00">
        <route edges="-362999576 362999573#1 362999573#2 -362999571 563175123 359245322#3 359246022 766136200 766136199#0 766136199#1 766136198 264106336 264106329 776405490#0 776405490#1 756081032 758136380 749662141 757088117#0 757088117#1 757089161 757373598 757457244#0 757457244#1 757457244#2 359408298#0 359408298#1 -359408254 359408240#4 359408276#0 359408276#1 359408258#0"/>
    </vehicle>
    <vehicle id="90" depart="90.00">