<?xml version="1.0" encoding="UTF-8"?>

<!-- generated on 03/04/21 19:00:34 by Eclipse SUMO duarouter Version 1.8.0
<configuration xmlns:xsi="http://www.w3.org/2001/XMLSchema-instance" xsi:noNamespaceSchemaLocation="http://sumo.dlr.de/xsd/duarouterConfiguration.xsd">

    <input>
        <net-file value="map-bsd1.net.xml"/>
        <route-files value="trips.trips.xml"/>
    </input>

    <output>
        <output-file value="route_maps-bsd1.rou.xml"/>
        <alternatives-output value="route_maps-bsd1.rou.alt.xml"/>
    </output>

    <time>
        <begin value="0"/>
        <end value="100"/>
    </time>

    <report>
        <no-warnings value="true"/>
        <ignore-errors value="true"/>
        <no-step-log value="true"/>
    </report>

</configuration>
-->

<routes xmlns:xsi="http://www.w3.org/2001/XMLSchema-instance" xsi:noNamespaceSchemaLocation="http://sumo.dlr.de/xsd/routes_file.xsd">
    <vehicle id="2" depart="2.00">
        <route edges="479605457#1 833506428 675107656 -479605474#0 816151375 479605475#1 479605475#2 479605475#3 479605466 757373595#2 775190280 359245321 359245322#0 359245322#1 359245322#2 359245322#3 359246022 766136200 766136199#0 766136199#1 766136198 264106336 264106329 776405490#0 776405490#1 756081032 758136380 749662141 757088117#0 757088117#1 757089161 756081030#0 756081030#1 362347492#0 398041366#0 398041366#1 398041366#2 398041366#3 359247810#3 398041365#3 398041365#4"/>
    </vehicle>
    <vehicle id="5" depart="5.00">
        <route edges="-479605474#1 -479605474#0 816151375 479605475#1 479605475#2 479605475#3 479605466 757373595#2 775190280 359245321 359245322#0 359245322#1 359245322#2 359245322#3 359246022 766136200 766136199#0 766136199#1 766136198 264106336 264106329 776405490#0 776405490#1 756081032 758136380 749662141 757088117#0 757088117#1 757089161 757373598 757457244#0 757457244#1 757457244#2 359408298#0 359408298#1 359408298#2 359408301#0 359408301#1 359408279#0"/>
    </vehicle>
    <vehicle id="6" depart="6.00">
        <route edges="-359246030#1 359246029#2 359246029#3 359246029#4 359246031#1 359246031#2 -362995551#2 -362995551#1 -362995551#0 562631153 766136199#1 766136198 264106336 264106329 776405490#0 776405490#1 756081032 758136380 749662141 757088117#0 757088117#1 757089161 757373598 771544256#3 775190282#0 775190282#1 775190281 757373595#0 479605465 479605475#5 816151374 479605474#0 -675107656 -833506428 -479605457#1"/>
    </vehicle>
    <vehicle id="8" depart="8.00">
        <route edges="-479605474#1 -479605474#0 816151375 479605475#1 479605475#2 479605475#3 479605466 757373595#2 775190280 359245321 359245322#0 359245322#1 359245322#2 359245322#3 359246022 766136200 362995550 362995551#0 697063413#0 362995558#2 362995558#3 362995558#4 362995556#1"/>
    </vehicle>
    <vehicle id="10" depart="10.00">
        <route edges="562021795#1 562021795#2 562021795#3 562021795#4 562021795#5 757373596 757373599 757373597#0 757373597#1 757373600#0 757373600#1 757373600#2 757373600#3 757373598 771544256#3 775190282#0 775190282#1 775190281 757373595#0 479605465 479605475#5 816151374 479605474#0 -675107656 -833506428 -479605457#1 479605457#1"/>
    </vehicle>
    <vehicle id="11" depart="11.00">
        <route edges="-833506421 479605461#1 833506428 675107656 -479605474#0 816151375 479605475#1 479605475#2 479605475#3 479605466 757373595#2 775190280 359245321 359245322#0 359245322#1 362999570 362999571 -362999573#2 -362999573#1 362999576 -362999573#7"/>
    </vehicle>
    <vehicle id="12" depart="12.00">
        <route edges="766136204 766136203 766136202 766136201 766136200 766136199#0 766136199#1 766136198 264106336 264106329 776405490#0 776405490#1 756081032 758136380 749662141 757088117#0 757088117#1 757089161 757373598 757457244#0 757457244#1 757457244#2 757457244#3 479605450 154148013#2"/>
    </vehicle>
    <vehicle id="18" depart="18.00">
        <route edges="562430406#5 562430406#6 562021795#4 562021795#5 757373596 757373599 757373597#0 757373597#1 757373600#0 757373600#1 757373600#2 757373600#3 757373598 771544256#3 775190282#0 775190282#1 775190281 757373595#0 757373595#1 757373595#2 775190280 359245321 359245322#0 359245322#1 362999570 362999571 362999573#3"/>
    </vehicle>
    <vehicle id="19" depart="19.00">
        <route edges="588529260 359246021 -588529259 359246032 359246029#0 359246029#1 359246029#2 359246029#3 359246029#4 359246031#1 359246031#2 -362995551#2 -362995551#1 697063413#0 697063413#1 697063415#6 362995553#0"/>
    </vehicle>
    <vehicle id="20" depart="20.00">
        <route edges="398041367#5 398041367#6 398041367#7 562430406#2 562430406#3 562430406#4 562430406#5 562430406#6 562021795#4 562021795#5 757373596 757373599 757373597#0 757373597#1 757373600#0 757373600#1 757373600#2 757373600#3 757373598 757457244#0 757457244#1 757457244#2 359408298#0 359408298#1 359408298#2 359408301#0 359408301#1 359408279#0 -359408229#1"/>
    </vehicle>
    <vehicle id="23" depart="23.00">
        <route edges="-359408303#2 -359408303#1 -359408303#0 -697060685#2"/>
    </vehicle>
    <vehicle id="25" depart="25.00">
        <route edges="154148013#1 154148013#2 757467200#0 757467200#1 775190282#0 775190282#1 775190281 757373595#0 479605465 479605475#5 816151374 479605474#0 -479605474#0"/>
    </vehicle>
    <vehicle id="26" depart="26.00">
        <route edges="-562631090 264106317#5 264106317#6 264106317#7 396051491#0 396051491#1 396051491#2 396051491#3 396051491#4 766136204 766136203 766136202 766136201 766136200 362995550 362995551#0 362995551#1 362995551#2 -359246031#2 -359246031#1 -359246031#0 760609832#1 760609832#2"/>
    </vehicle>
    <vehicle id="27" depart="27.00">
        <route edges="362999573#3 -362999573#3 -362999573#2 -362999573#1 -362999573#0 362999572#1"/>
    </vehicle>
    <vehicle id="29" depart="29.00">
        <route edges="-362999573#2 362999573#2 -362999571 563175123 359245322#3 359246022 766136200 766136199#0 766136199#1 766136198 264106336 264106329 776405490#0 776405490#1 756081032 758136380 749662141 757088117#0 757088117#1 757089161 757373598 771544256#3 775190282#0 775190282#1 775190281 757373595#0 757373595#1 757373595#2 775190280 359245321 359245322#0"/>
    </vehicle>
    <vehicle id="30" depart="30.00">
        <route edges="816151374 816151375 479605475#1 479605475#2 479605475#3 479605466 757373595#2 775190280 359245321 359245322#0 359245322#1 362999570 362999571 -362999573#2 -362999573#1 362999576"/>
    </vehicle>
    <vehicle id="31" depart="31.00">
        <route edges="359408276#1 -359408276#1 -359408276#0 359408240#0 359408240#1 359408240#2 359408240#3 359408254 -359408298#1 -359408298#0 757457244#3 479605450 154148013#2 757467200#0 757467200#1 757467199 757089161 756081030#0 756081030#1 362347492#0 398041366#0 398041366#1 398041366#2 398041366#3 398041366#4 398041366#5"/>
    </vehicle>
    <vehicle id="35" depart="35.00">
        <route edges="-479605457#1 479605457#1 833506428 675107656 -479605474#0 816151375 479605475#1 479605475#2 479605475#3 479605466 757373595#2 775190280 359245321 359245322#0 359245322#1 359245322#2 359245322#3 359246022 766136200 766136199#0"/>
    </vehicle>
    <vehicle id="36" depart="36.00">
        <route edges="697060685#0 697060685#1 697060685#2 697060685#3 359408240#3 359408254 -359408298#1 -359408298#0 757457244#3 479605450 154148013#2 757467200#0 757467200#1 775190282#0 775190282#1 775190281 757373595#0 479605465 479605475#5 479605475#6 479605475#0 479605475#1 843161226 843161225#0 -843161225#0"/>
    </vehicle>
    <vehicle id="37" depart="37.00">
        <route edges="362999573#6 362999575 362999573#2 -362999571 563175123 359245322#3 359245322#4 359245322#5 359245322#6"/>
    </vehicle>
    <vehicle id="38" depart="38.00">
        <route edges="756081031#1 562021794#2 562021794#3 562021794#4 -359245193 562021795#2 359247813#0 359247813#1 359247813#2 359247813#3 359247813#4 359247813#5 359247813#6 359247813#7 359247813#8 359247813#9"/>
    </vehicle>
    <vehicle id="43" depart="43.00">
        <route edges="833506428 675107656 -479605474#0 816151375 479605475#1 479605475#2 479605475#3 479605466 757373595#2 775190280 359245321 359245322#0 359245322#1 359245322#2 359245322#3 359246022 766136200 766136199#0 766136199#1 766136198 264106336 264106329 776405490#0 776405490#1 756081032 758136380 749662141 757088117#0 757088117#1 757089161 757373598 757457244#0 757457244#1 757457244#2 359408298#0 359408298#1 359408298#2 359408301#0 359408301#1 359408279#0 359408279#1 359408279#2"/>
    </vehicle>
    <vehicle id="44" depart="44.00">
        <route edges="-359408298#3 359408301#0 359408301#1 359408301#2 -359408236#0"/>
    </vehicle>
    <vehicle id="48" depart="48.00">
        <route edges="833506427#2 -833506427#2 -833506427#1 -833506427#0 -697072223 675107656 -479605474#0 816151375 479605475#1 479605475#2 479605475#3 479605466 757373595#2 775190280 359245321 359245322#0 359245322#1 359245322#2 359245322#3 359246022 766136200 766136199#0 766136199#1 766136198 264106336 264106329 776405490#0 776405490#1 756081032 758136380 749662141 757088117#0 757088117#1 757089161 757373598 757457244#0 757457244#1 757457244#2 359408298#0 359408298#1 359408298#2 359408298#3"/>
    </vehicle>
    <vehicle id="49" depart="49.00">
        <route edges="771544256#0 771544256#1 771544256#2 757457244#0 757457244#1 757457244#2 359408298#0 359408298#1 -359408254 359408240#4 359408276#0 359408276#1 359408276#2 697060685#0"/>
    </vehicle>
    <vehicle id="50" depart="50.00">
        <route edges="-359244580#1 -359244585#1 -359244585#0 359244580#2 359244580#3 359244580#4 359244580#5 359244580#6 729090489 154148014#3 562021790#0 562021790#1 757390879#0 757390879#1 562021795#0 562021795#1 562021795#2 562021795#3 562021795#4 359247810#0 359247810#1 359247810#2 359247810#3 398041365#3 539383767#6 539383767#7 539383767#8 539383767#9 539383767#10"/>
    </vehicle>
    <vehicle id="51" depart="51.00">
        <route edges="398041363#1 398041363#2 398041363#3 539383767#2 539383767#3 539383767#4 539383767#5 539383767#6 539383767#7 539383767#8 539383767#9 539383767#10 539383767#11 757373596 757373599 757373597#0 757373597#1 757373600#0 757373600#1 757373600#2 757373600#3 757373598 757457244#0 757457244#1 757457244#2 359408298#0 359408298#1 -359408254 359408240#4 359408240#0 359408246 -359408303#1 -359408303#0 359408303#0"/>
    </vehicle>
    <vehicle id="52" depart="52.00">
        <route edges="-562631090 264106317#5 264106317#6 264106317#7 396051491#0 396051491#1 396051491#2 396051491#3 396051491#4 766136204 766136203 766136202 766136201 766136200 766136199#0 766136199#1 766136198 359246020 359245322#1 362999570 362999571 -362999573#2 -362999573#1 362999576"/>
    </vehicle>
    <vehicle id="56" depart="56.00">
        <route edges="359246029#5 760609833 760609832#0 359246031#0 359246031#1 359246031#2 -362995551#2 -362995551#1 -362995551#0 562631153 766136199#1 766136198 264106336 264106329 776405490#0 776405490#1 756081032 758136380 749662141 757088117#0 757088117#1 757089161 757373598 757457244#0 757457244#1 757457244#2 359408298#0 -470465976"/>
    </vehicle>
    <vehicle id="58" depart="58.00">
        <route edges="-697060685#1 -697060685#0 -359408276#2 -359408276#1 -359408276#0 359408240#0 359408240#1 359408240#2 359408240#3 359408254 -359408298#1 -359408298#0 757457244#3 479605450 154148013#2 757467200#0 757467200#1 775190282#0 775190282#1 775190281 757373595#0 757373595#1 757373595#2 775190280 359245321 359245322#0 359245322#1 362999570 362999571 -362999573#2 -362999573#1 362999576"/>
    </vehicle>
    <vehicle id="59" depart="59.00">
        <route edges="362995553#0 362995558#0 362995558#1 362995558#2 362995552#1 -362995551#1 -362995551#0 562631153 766136199#1 766136198 359246020 359245322#1 362999570 362999571 362999573#3 362999573#4 -362999574 -362999573#5"/>
    </vehicle>
    <vehicle id="60" depart="60.00">
        <route edges="539383767#5 539383767#6 539383767#7 539383767#8 539383767#9 539383767#10 539383767#11 757373596 757373599 757373597#0 757373597#1 757373600#0 757373600#1 757373600#2 757373600#3 757373598 757457244#0 757457244#1 757457244#2 359408298#0 359408298#1 -359408254 359408240#4 359408240#0 359408246 359408303#2"/>
    </vehicle>
    <vehicle id="63" depart="63.00">
        <route edges="-359244585#0 359244580#2 359244580#3 359244580#4 359244580#5 359244580#6 729090489 154148014#3 562021790#0 562021790#1 757390879#0 757390879#1 562021795#0 562021795#1 562021795#2 562021795#3 562021795#4 562021795#5 757373596 757373599 757373597#0 757373597#1 757373600#0 757373600#1 757373600#2 757373600#3 757373598 757457244#0 757457244#1 757457244#2 757457244#3 757457244#4"/>
    </vehicle>
    <vehicle id="66" depart="66.00">
        <route edges="697060685#1 697060685#2 697060685#3 359408240#3 359408254 -359408298#1 -359408298#0 757457244#3 479605450 154148013#2 757467200#0 757467200#1 775190282#0 775190282#1 775190281 757373595#0 757373595#1 757373595#2 775190280 359245321 359245322#0 359245322#1 359245322#2 359245322#3 359246022 766136200"/>
    </vehicle>
    <vehicle id="67" depart="67.00">
        <route edges="-359408298#3 -359408298#2 -359408254 359408240#4 359408276#0 359408276#1 359408258#0 359408258#1"/>
    </vehicle>
    <vehicle id="69" depart="69.00">
        <route edges="539383767#8 539383767#9 539383767#10 539383767#11 757373596 757373599 757373597#0 757373597#1 757373600#0 757373600#1 757373600#2 757373600#3 757373598 771544256#3 775190282#0 775190282#1 775190281 757373595#0 757373595#1 757373595#2 775190280 359245321 359245322#0 359245322#1 359245322#2 359245322#3 359246022 766136200 362995550 362995551#0 697063413#0 362995558#2 362995558#3 -362995558#3"/>
    </vehicle>
    <vehicle id="74" depart="74.00">
        <route edges="-396051490 264106317#3 264106317#4 264106317#5 264106317#6 264106317#7 396051491#0 396051491#1 396051491#2 396051491#3 396051491#4 766136204 766136203 766136202 766136201 766136200 766136199#0 766136199#1 766136198 264106336 264106329 776405490#0 776405490#1 756081032 758136380 749662141 757088117#0 757088117#1 757089161 757373598 771544256#3 775190282#0 775190282#1 775190281 757373595#0 479605465 479605475#5 816151374 479605474#0 -675107656 697072223 833506427#0 833506427#1 -833506427#1"/>
    </vehicle>
    <vehicle id="76" depart="76.00">
        <route edges="359244580#1 359244580#2 359244580#3 359244580#4 359244580#5 359244580#6 729090489 154148014#3 562021790#0 562021790#1 757390879#0 757390879#1 562021795#0 562021795#1 562021795#2 562021795#3 562021795#4 562021795#5 757373596 757373599 757373597#0 757373597#1 757373600#0 757373600#1 757373600#2 757373600#3 757373598 757457244#0 757457244#1 757457244#2 359408298#0 359408298#1 359408298#2 359408298#3"/>
    </vehicle>
    <vehicle id="79" depart="79.00">
        <route edges="-552423756#0 552423761#1 -552423759#2"/>
    </vehicle>
    <vehicle id="80" depart="80.00">
        <route edges="-359408279#1 -359408279#0 -359408301#1 -359408301#0 -359408298#2 -359408298#1 -359408298#0 757457244#3 479605450 154148013#2 757467200#0 757467200#1 775190282#0 775190282#1 775190281 757373595#0 757373595#1 757373595#2 775190280 359245321 359245322#0 359245322#1 362999570 362999571 362999573#3 362999573#4 362999573#5 362999574"/>
    </vehicle>
    <vehicle id="82" depart="82.00">
        <route edges="588529254#0 588529254#1 588529254#2 396051491#0 396051491#1 396051491#2 396051491#3 396051491#4 766136204 766136203 766136202 766136201 766136200 766136199#0 766136199#1 766136198 264106336 264106329 776405490#0 776405490#1 756081032 758136380 749662141 757088117#0 757088117#1 757089161 757373598 757457244#0 757457244#1 757457244#2 359408298#0 359408298#1 359408298#2 359408301#0 359408229#1 -359408279#0"/>
    </vehicle>
    <vehicle id="84" depart="84.00">
        <route edges="-479605474#0 816151375 479605475#1 479605475#2 479605475#3 479605466 757373595#2 775190280 359245321 359245322#0 359245322#1 362999570 362999571 -362999571"/>
    </vehicle>
    <vehicle id="85" depart="85.00">
        <route edges="760609832#0 359246031#0 359246031#1 359246031#2 -362995551#2 362995551#2"/>
    </vehicle>
    <vehicle id="87" depart="87.00">
        <route edges="562021795#2 562021795#3 562021795#4 562021795#5 757373596 757373599 757373597#0 757373597#1 757373600#0 757373600#1 757373600#2 757373600#3 757373598 757457244#0 757457244#1 757457244#2 359408298#0 -470465976"/>
    </vehicle>
    <vehicle id="88" depart="88.00">
        <route edges="-359408301#1 -359408301#0 -359408298#2 -359408298#1 -359408298#0 757457244#3 479605450 154148013#2 757467200#0 757467200#1 775190282#0 775190282#1 775190281 757373595#0 757373595#1 757373595#2 775190280 359245321 359245322#0 359245322#1 359245322#2 359245322#3 359246022 766136200 362995550 362995551#0 362995551#1 362995551#2 -359246031#2 -359246031#1 -359246031#0 760609832#1 760609832#2 760609832#3 760609832#4 760609832#5 -359246032 359246032"/>
    </vehicle>
    <vehicle id="89" depart="89.00">
        <route edges="264106317#3 264106317#4 264106317#5 264106317#6 264106317#7 396051491#0 396051491#1 396051491#2 396051491#3 396051491#4 766136204 766136203 766136202 766136201 766136200 766136199#0 766136199#1 766136198 264106336 264106329 776405490#0 776405490#1 756081032 758136380 749662141 757088117#0 757088117#1 757089161 757373598 757457244#0 757457244#1 757457244#2 359408298#0 359408298#1 359408298#2 359408301#0 359408229#1"/>
    </vehicle>
    <vehicle id="90" depart="90.00">
        <route edges="470465976 -359408298#0 757457244#3 479605450 154148013#2 757467200#0 757467200#1 757467199 757089161 756081030#0 756081030#1 362347492#0 398041366#0 398041366#1 398041366#2 398041366#3 398041366#4 398041366#5 398041366#6 359247813#3 398041365#0 398041365#1"/>
    </vehicle>
    <vehicle id="92" depart="92.00">
        <route edges="154148014#0 154148014#1"/>
    </vehicle>
    <vehicle id="94" depart="94.00">
        <route edges="-362999577 -362999573#3 -362999571 563175123 359245322#3 359246022 766136200 766136199#0 766136199#1 766136198 264106336 264106329 776405490#0 776405490#1 756081032 758136380 749662141 757088117#0 757088117#1 562021794#0 562021794#1 562021794#2 562021794#3 562021794#4 -359245193 562021795#2 359247813#0 359247813#1"/>
    </vehicle>
    <vehicle id="95" depart="95.00">
        <route edges="264106317#2 264106317#3 264106317#4 264106317#5 264106317#6 264106317#7 396051491#0 396051491#1 396051491#2 396051491#3 396051491#4 766136204 766136203 766136202 766136201 766136200 766136199#0 766136199#1 766136198 264106336 264106329 776405490#0 776405490#1 756081032 758136380 749662141 757088117#0 757088117#1 757089161 757373598 757457244#0 757457244#1 757457244#2 359408298#0 359408298#1 -359408254 359408240#4 359408240#0 359408240#1 359408240#2 -697060685#3"/>
    </vehicle>
    <vehicle id="97" depart="97.00">
        <route edges="359244580#1 359244580#2 359244580#3 359244580#4 359244580#5 359244580#6 729090489 154148014#3 562021790#0 562021790#1 757390879#0 757390879#1 562021795#0 562021795#1 562021795#2 562021795#3 562021795#4 562021795#5 757373596 757373599 757373597#0 757373597#1 757373600#0 757373600#1 757373600#2 757373600#3 757373598 757457244#0 757457244#1 757457244#2 359408298#0 359408298#1 -359408254 359408240#4 359408276#0 359408276#1 359408276#2 697060685#0 697060685#1"/>
    </vehicle>
    <vehicle id="98" depart="98.00">
        <route edges="359408258#1 697060685#2 697060685#3 359408240#3 359408254 359408298#2 359408301#0 359408301#1 -359408236#1"/>
    </vehicle>
</routes>
