<?xml version="1.0" encoding="UTF-8"?>
<!-- generated on 2021-03-25 15:20:13.079164 by osmTaxiStop.py v1_8_0+0044-4820708f3d
  options: -s map-bsd1.osm -n map-bsd1.net.xml
-->
<additional xmlns:xsi="http://www.w3.org/2001/XMLSchema-instance" xsi:noNamespaceSchemaLocation="http://sumo.dlr.de/xsd/additional_file.xsd">
</additional>
