<?xml version="1.0" encoding="UTF-8"?>

<!-- generated on 06/25/21 10:11:50 by Eclipse SUMO duarouter Version 1.8.0
<configuration xmlns:xsi="http://www.w3.org/2001/XMLSchema-instance" xsi:noNamespaceSchemaLocation="http://sumo.dlr.de/xsd/duarouterConfiguration.xsd">

    <input>
        <net-file value="0/../BSD.net.xml"/>
        <route-files value="0/../bsd.trips.xml"/>
    </input>

    <output>
        <output-file value="0/bsd_000.rou.xml"/>
        <alternatives-output value="0/bsd_000.rou.alt.xml"/>
        <exit-times value="false"/>
    </output>

    <processing>
        <max-alternatives value="5"/>
        <with-taz value="false"/>
        <weights.expand value="true"/>
        <routing-algorithm value="dijkstra"/>
        <gawron.beta value="0.9"/>
        <gawron.a value="0.5"/>
        <keep-all-routes value="false"/>
        <logit value="false"/>
        <logit.beta value="0.15"/>
        <logit.gamma value="1"/>
    </processing>

    <time>
        <begin value="0"/>
    </time>

    <report>
        <verbose value="false"/>
        <no-warnings value="false"/>
        <ignore-errors value="false"/>
        <no-step-log value="true"/>
    </report>

    <random_number>
        <random value="false"/>
    </random_number>

</configuration>
-->

<routes xmlns:xsi="http://www.w3.org/2001/XMLSchema-instance" xsi:noNamespaceSchemaLocation="http://sumo.dlr.de/xsd/routes_file.xsd">
    <vehicle id="rute_0_1" depart="25.00">
        <route edges="-359409608 359409609#4 -697060688 359409594#1 -359409616 359409621#1 757457244#6 479605451 154148013#5 154148013#6 757467200#0 757467200#1 757467199 562021794#0 562021794#1 562021794#2 562021794#3 562021794#4 562021794#5 562021794#6 562021794#7 562021794#8 562021794#9 562021794#10 562021792 560361514#0 560361514#1 560361514#2 560361514#3 560361514#4 560361514#5 -359245191 154148014#10 154148014#11 -484446266#8"/>
    </vehicle>
    <vehicle id="rute_0_2" depart="25.00">
        <route edges="-359409608 359409609#4 -697060688 359409594#1 -359409616 359409621#1 757457244#6 479605451 154148013#5 154148013#6 757467200#0 757467200#1 757467199 562021794#0 562021794#1 562021794#2 562021794#3 562021794#4 562021794#5 562021794#6 562021794#7 562021794#8 562021794#9 562021794#10 562021792 560361514#0 560361514#1 560361514#2 560361514#3 -359245190 154148014#13 359244613 359244580#0 815232744 818969401 -675107653#5"/>
    </vehicle>
    <vehicle id="rute_0_3" depart="25.00">
        <route edges="-359409608 359409609#4 -697060688 359409594#1 -359409616 359409621#1 757457244#6 479605451 154148013#5 154148013#6 757467200#0 757467200#1 757467199 562021794#0 562021794#1 562021794#2 562021794#3 562021794#4 562021794#5 562021794#6 562021794#7 562021794#8 562021794#9 562021794#10 562021792 560361514#0 560361514#1 560361514#2 560361514#3 560361514#4 560361514#5 560361514#6 560361514#7 359246985 676171779#0 676171779#1 359246990#2 -359246991#1 359246989#0 359246989#1 359246989#2 -359246992#1 359246990#0 359246993#0"/>
    </vehicle>
    <vehicle id="rute_0_4" depart="25.00">
        <route edges="-359409608 359409609#4 -697060688 359409594#1 -359409616 359409621#1 757457244#6 479605451 154148013#5 154148013#6 757467200#0 757467200#1 757467199 562021794#0 562021794#1 562021794#2 562021794#3 562021794#4 562021794#5 562021794#6 562021794#7 562021794#8 562021794#9 562021794#10 562021792 560361514#0 560361514#1 560361514#2 560361514#3 560361514#4 560361514#5 560361514#6 560361514#7 560361514#8 560361514#9 560361514#10 560361514#11 359246983#0 359246983#1 359246983#2 359246983#3 359246983#4 359246983#5 359246983#6 154148014#0 154148014#1 154148014#2"/>
    </vehicle>
    <vehicle id="rute_0_5" depart="25.00">
        <route edges="-359409608 359409609#4 -697060688 359409594#1 -359409616 359409621#1 757457244#6 479605451 154148013#5 154148013#6 757467200#0 757467200#1 757467199 757089161 756081030#0 756081030#1 362347492#0 362347492#1 362347492#2 362347492#3 362347492#4 362347492#5 757091805#0 757091805#1 749662139 757373594 749662140#0 749662140#1 749662140#2 757092064#0 757092064#1 757092063 754594908#0 754594908#1 754594908#2 754594908#3 754594908#4 754594908#5 754594908#6 754594908#7 754594908#8 754594908#9 754594908#10 754594908#11 754594908#12 894641851 -168336017 168336015 230287233#0 230287233#1 230287233#2 230291072"/>
    </vehicle>
    <vehicle id="rute_0_6" depart="25.00">
        <route edges="-359409608 359409609#4 -697060688 359409594#1 -359409616 359409621#1 757457244#6 479605451 154148013#5 154148013#6 757467200#0 757467200#1 757467199 757089161 756081030#0 756081030#1 362347492#0 362347492#1 362347492#2 362347492#3 362347492#4 362347492#5 757091805#0 757091805#1 749662139 757373594 749662140#0 749662140#1 749662140#2 757092064#0 757092064#1 757092063 754594908#0 754594908#1 754594908#2 539383767#0 539383767#1"/>
    </vehicle>
    <vehicle id="rute_0_7" depart="25.00">
        <route edges="-359409608 359409609#4 -697060688 359409594#1 -359409616 359409621#1 757457244#6 479605451 154148013#5 154148013#6 757467200#0 757467200#1 757467199 757089161 756081030#0 756081030#1 362347492#0 362347492#1 362347492#2 362347492#3 362347492#4 362347492#5 757091805#0 757091805#1 749662139 757373594 749662140#0 749662140#1 749662140#2 757092064#0 757092064#1 757092063 754594908#0 754594908#1 754594908#2 754594908#3 754594908#4 754594908#5 754594908#6 694954580 539383762#0 539383762#1 539383762#2 -846964388 539383765#3"/>
    </vehicle>
    <vehicle id="rute_0_8" depart="25.00">
        <route edges="-359409608 359409609#4 -697060688 359409594#1 -359409616 359409621#1 757457244#6 479605451 154148013#5 154148013#6 757467200#0 757467200#1 757467199 562021794#0 562021794#1 562021794#2 562021794#3 562021794#4 562021794#5 562021794#6 562021794#7 562021794#8 562021794#9 562021794#10 562021792 560361514#0 560361514#1 560361514#2 560361514#3 560361514#4 560361514#5 560361514#6 560361514#7 560361514#8 560361514#9 560361514#10"/>
    </vehicle>
    <vehicle id="rute_0_9" depart="25.00">
        <route edges="-359409608 359409609#4 -697060688 359409594#1 -359409616 359409621#1 757457244#6 479605451 154148013#5 154148013#6 757467200#0 757467200#1 757467199 562021794#0 562021794#1 562021794#2 562021794#3 562021794#4 562021794#5 562021794#6 562021794#7 562021794#8 562021794#9 562021794#10 562021792 560361514#0 560361514#1 560361514#2 560361514#3 560361514#4 560361514#5 560361514#6"/>
    </vehicle>
    <vehicle id="rute_0_10" depart="25.00">
        <route edges="-359409608 359409609#4 -697060688 359409594#1 -359409616 359409621#1 757457244#6 479605451 154148013#5 154148013#6 757467200#0 757467200#1 757467199 562021794#0 562021794#1"/>
    </vehicle>
    <vehicle id="rute_0_11" depart="25.00">
        <route edges="-359409608 359409609#4 -697060688 359409594#1 -359409616 359409621#1 757457244#6 479605451 154148013#5 154148013#6"/>
    </vehicle>
    <vehicle id="rute_0_12" depart="25.00">
        <route edges="-359409608 359409609#4 -697060688 359409594#1 -359409616 359409621#1 757457244#6 479605451 154148013#5 154148013#6 757467200#0 757467200#1 757467199 757089161 756081030#0 756081030#1 362347492#0 362347492#1 362347492#2 362347492#3 362347492#4 362347492#5 757091805#0 757091805#1 749662139 757373594 749662140#0 749662140#1 749662140#2 757092064#0 757092064#1 757092063 754594908#0 754594908#1 754594908#2 754594908#3 754594908#4"/>
    </vehicle>
    <vehicle id="rute_0_13" depart="25.00">
        <route edges="-359409608 359409609#4 -697060688 359409594#1 -359409616 359409621#1 757457244#6 479605451 154148013#5 154148013#6 757467200#0 757467200#1 757467199 757089161 756081030#0 756081030#1 362347492#0 362347492#1 362347492#2 362347492#3 362347492#4 362347492#5 757091805#0 757091805#1 749662139 757373594 749662140#0 749662140#1 749662140#2 757092064#0 757092064#1 757092063 754594908#0 754594908#1 754594908#2 754594908#3 754594908#4 754594908#5 754594908#6 694954580 539383768#5 539383768#6"/>
    </vehicle>
    <vehicle id="rute_0_14" depart="25.00">
        <route edges="-359409608 359409609#4 -697060688 359409594#1 -359409616 359409621#1 757457244#6 479605451 154148013#5 154148013#6 757467200#0 757467200#1 757467199 757089161 756081030#0 756081030#1 362347492#0 362347492#1 362347492#2 362347492#3 362347492#4 362347492#5 757091805#0 757091805#1 749662139 757373594 749662140#0 749662140#1 749662140#2 757092064#0 757092064#1 757092063 754594908#0 754594908#1 754594908#2 754594908#3 754594908#4 754594908#5 754594908#6 754594908#7 754594908#8 754594908#9 754594908#10 754594908#11 757096026 674365071 674365070 539383768#1 539383768#2"/>
    </vehicle>
    <vehicle id="rute_0_15" depart="25.00">
        <route edges="-359409608 359409609#4 -697060688 359409594#1 -359409616 359409621#1 757457244#6 479605451 154148013#5 154148013#6 757467200#0 757467200#1 757467199 757089161 756081030#0 756081030#1 362347492#0 362347492#1 362347492#2 362347492#3 362347492#4 362347492#5 757091805#0 757091805#1 749662139 757373594 749662140#0 749662140#1 749662140#2 757092064#0 757092064#1 757092063 754594908#0 754594908#1 754594908#2 754594908#3 754594908#4 754594908#5 754594908#6 754594908#7 754594908#8 754594908#9 754594908#10 754594908#11 754594908#12 894425583 894641852 676448722 894641850 894641853 539383768#0"/>
    </vehicle>
    <vehicle id="rute_1_0" depart="25.00">
        <route edges="-484446266#8 484446266#8 154148014#12 154148014#13 154148014#14 154148014#15 154148014#16 154148014#17 154148014#18 562021790#0 562021790#1 757390879#0 757390879#1 562021795#0 562021795#1 562021795#2 562021795#3 562021795#4 562021795#5 757373596 757373599 757373597#0 757373597#1 757373600#0 757373600#1 757373600#2 757373600#3 757373598 757457244#0 757457244#1 757457244#2 757457244#3 757457244#4 359409621#0 359409616 359409594#2 359409594#0 697060688 697060687#0 -359409608"/>
    </vehicle>
    <vehicle id="rute_1_2" depart="25.00">
        <route edges="-484446266#8 484446266#8 154148014#12 154148014#13 359244613 359244580#0 815232744 818969401 -675107653#5"/>
    </vehicle>
    <vehicle id="rute_1_3" depart="25.00">
        <route edges="-484446266#8 484446266#8 154148014#12 359245190 560361514#4 560361514#5 560361514#6 560361514#7 359246985 676171779#0 676171779#1 359246990#2 -359246991#1 359246989#0 359246989#1 359246989#2 -359246992#1 359246990#0 359246993#0"/>
    </vehicle>
    <vehicle id="rute_1_4" depart="25.00">
        <route edges="-484446266#8 484446266#8 154148014#12 359245190 560361514#4 560361514#5 560361514#6 560361514#7 560361514#8 560361514#9 560361514#10 560361514#11 359246983#0 359246983#1 359246983#2 359246983#3 359246983#4 359246983#5 359246983#6 154148014#0 154148014#1 154148014#2"/>
    </vehicle>
    <vehicle id="rute_1_5" depart="25.00">
        <route edges="-484446266#8 484446266#8 154148014#12 359245190 560361514#4 560361514#5 560361514#6 560361514#7 560361514#8 560361514#9 359245194 154148014#4 154148014#5 682199979 168336006#0 168336006#1 168336006#2 682059305#1 682059305#2 682059305#3 682059305#4 682059305#5 682059305#6 682059305#7 230287233#0 230287233#1 230287233#2 230291072"/>
    </vehicle>
    <vehicle id="rute_1_6" depart="25.00">
        <route edges="-484446266#8 484446266#8 154148014#12 154148014#13 154148014#14 154148014#15 154148014#16 154148014#17 154148014#18 562021790#0 562021790#1 757390879#0 757390879#1 562021795#0 562021795#1 562021795#2 562021795#3 562021795#4 562021795#5 757373596 757373599 757373597#0 757373597#1 757373600#0 757373600#1 757373600#2 757373600#3 756081030#0 756081030#1 362347492#0 362347492#1 362347492#2 362347492#3 362347492#4 362347492#5 757091805#0 757091805#1 749662139 757373594 749662140#0 749662140#1 749662140#2 757092064#0 757092064#1 757092063 754594908#0 754594908#1 754594908#2 539383767#0 539383767#1"/>
    </vehicle>
    <vehicle id="rute_1_7" depart="25.00">
        <route edges="-484446266#8 484446266#8 154148014#12 154148014#13 154148014#14 154148014#15 154148014#16 154148014#17 154148014#18 562021790#0 562021790#1 757390879#0 757390879#1 562021795#0 562021795#1 562021795#2 562021795#3 562021795#4 562021795#5 757373596 757373599 757373597#0 757373597#1 757373600#0 757373600#1 757373600#2 757373600#3 756081030#0 756081030#1 362347492#0 362347492#1 362347492#2 362347492#3 362347492#4 362347492#5 757091805#0 757091805#1 749662139 757373594 749662140#0 749662140#1 749662140#2 757092064#0 757092064#1 757092063 754594908#0 754594908#1 754594908#2 754594908#3 754594908#4 754594908#5 754594908#6 694954580 539383762#0 539383762#1 539383762#2 -846964388 539383765#3"/>
    </vehicle>
    <vehicle id="rute_1_8" depart="25.00">
        <route edges="-484446266#8 484446266#8 154148014#12 359245190 560361514#4 560361514#5 560361514#6 560361514#7 560361514#8 560361514#9 560361514#10"/>
    </vehicle>
    <vehicle id="rute_1_9" depart="25.00">
        <route edges="-484446266#8 484446266#8 154148014#12 359245190 560361514#4 560361514#5 560361514#6"/>
    </vehicle>
    <vehicle id="rute_1_10" depart="25.00">
        <route edges="-484446266#8 484446266#8 154148014#12 154148014#13 154148014#14 154148014#15 154148014#16 154148014#17 154148014#18 562021790#0 562021790#1 757390879#0 757390879#1 562021795#0 562021795#1 562021795#2 562021795#3 562021795#4 562021795#5 757373596 757373599 757373597#0 757373597#1 757373600#0 757373600#1 757373600#2 757373600#3 757373598 771544256#3 757467199 562021794#0 562021794#1"/>
    </vehicle>
    <vehicle id="rute_1_11" depart="25.00">
        <route edges="-484446266#8 484446266#8 154148014#12 154148014#13 154148014#14 154148014#15 154148014#16 154148014#17 154148014#18 562021790#0 562021790#1 757390879#0 757390879#1 562021795#0 562021795#1 562021795#2 562021795#3 562021795#4 562021795#5 757373596 757373599 757373597#0 757373597#1 757373600#0 757373600#1 757373600#2 757373600#3 757373598 757457244#0 757457244#1 757457244#2 757457244#3 479605450 154148013#6"/>
    </vehicle>
    <vehicle id="rute_1_12" depart="25.00">
        <route edges="-484446266#8 484446266#8 154148014#12 154148014#13 154148014#14 154148014#15 154148014#16 154148014#17 154148014#18 562021790#0 562021790#1 757390879#0 757390879#1 562021795#0 562021795#1 562021795#2 562021795#3 562021795#4 562021795#5 757373596 757373599 757373597#0 757373597#1 757373600#0 757373600#1 757373600#2 757373600#3 756081030#0 756081030#1 362347492#0 362347492#1 362347492#2 362347492#3 362347492#4 362347492#5 757091805#0 757091805#1 749662139 757373594 749662140#0 749662140#1 749662140#2 757092064#0 757092064#1 757092063 754594908#0 754594908#1 754594908#2 754594908#3 754594908#4"/>
    </vehicle>
    <vehicle id="rute_1_13" depart="25.00">
        <route edges="-484446266#8 484446266#8 154148014#12 154148014#13 154148014#14 154148014#15 154148014#16 154148014#17 154148014#18 562021790#0 562021790#1 757390879#0 757390879#1 562021795#0 562021795#1 562021795#2 562021795#3 562021795#4 562021795#5 757373596 757373599 757373597#0 757373597#1 757373600#0 757373600#1 757373600#2 757373600#3 756081030#0 756081030#1 362347492#0 362347492#1 362347492#2 362347492#3 362347492#4 362347492#5 757091805#0 757091805#1 749662139 757373594 749662140#0 749662140#1 749662140#2 757092064#0 757092064#1 757092063 754594908#0 754594908#1 754594908#2 754594908#3 754594908#4 754594908#5 754594908#6 694954580 539383768#5 539383768#6"/>
    </vehicle>
    <vehicle id="rute_1_14" depart="25.00">
        <route edges="-484446266#8 484446266#8 154148014#12 359245190 560361514#4 560361514#5 560361514#6 560361514#7 560361514#8 560361514#9 560361514#10 560361514#11 359246983#0 359246983#1 359246983#2 359246983#3 359246983#4 359247808#0 359247808#1 359247808#2 359247808#3 359247808#4 359247808#5 359247808#6 359247808#7 822180069#0 894641854#0 894641854#1 894641854#2 894641854#3 894641853 539383768#0 539383768#1 539383768#2"/>
    </vehicle>
    <vehicle id="rute_1_15" depart="25.00">
        <route edges="-484446266#8 484446266#8 154148014#12 359245190 560361514#4 560361514#5 560361514#6 560361514#7 560361514#8 560361514#9 560361514#10 560361514#11 359246983#0 359246983#1 359246983#2 359246983#3 359246983#4 359247808#0 359247808#1 359247808#2 359247808#3 359247808#4 359247808#5 359247808#6 359247808#7 822180069#0 894641854#0 894641854#1 894641854#2 894641854#3 894641853 539383768#0"/>
    </vehicle>
    <vehicle id="rute_2_0" depart="25.00">
        <route edges="-675107653#5 -675107653#4 815241572 818969399 359244580#10 359244580#11 729090489 154148014#18 562021790#0 562021790#1 757390879#0 757390879#1 562021795#0 562021795#1 562021795#2 562021795#3 562021795#4 562021795#5 757373596 757373599 757373597#0 757373597#1 757373600#0 757373600#1 757373600#2 757373600#3 757373598 757457244#0 757457244#1 757457244#2 757457244#3 757457244#4 359409621#0 359409616 359409594#2 359409594#0 697060688 697060687#0 -359409608"/>
    </vehicle>
    <vehicle id="rute_2_1" depart="25.00">
        <route edges="-675107653#5 -675107653#4 815241572 818969399 359244580#10 359244580#11 729090489 154148014#18 562021790#0 562021790#1 757390879#0 757390879#1 562021795#0 562021795#1 359245193 562021794#5 562021794#6 562021794#7 562021794#8 562021794#9 562021794#10 562021792 560361514#0 560361514#1 560361514#2 560361514#3 560361514#4 560361514#5 -359245191 154148014#10 154148014#11 -484446266#8"/>
    </vehicle>
    <vehicle id="rute_2_3" depart="25.00">
        <route edges="-675107653#5 -675107653#4 815241572 818969399 359244580#10 359244580#11 729090489 154148014#18 562021790#0 562021790#1 757390879#0 757390879#1 562021795#0 562021795#1 359245193 562021794#5 562021794#6 562021794#7 562021794#8 562021794#9 562021794#10 562021792 560361514#0 560361514#1 560361514#2 560361514#3 560361514#4 560361514#5 560361514#6 560361514#7 359246985 676171779#0 676171779#1 359246990#2 -359246991#1 359246989#0 359246989#1 359246989#2 -359246992#1 359246990#0 359246993#0"/>
    </vehicle>
    <vehicle id="rute_2_4" depart="25.00">
        <route edges="-675107653#5 -675107653#4 815241572 818969399 359244580#10 359244580#11 729090489 154148014#18 562021790#0 562021790#1 757390879#0 757390879#1 562021795#0 562021795#1 359245193 562021794#5 562021794#6 562021794#7 562021794#8 562021794#9 562021794#10 562021792 560361514#0 560361514#1 560361514#2 560361514#3 560361514#4 560361514#5 560361514#6 560361514#7 560361514#8 560361514#9 560361514#10 560361514#11 359246983#0 359246983#1 359246983#2 359246983#3 359246983#4 359246983#5 359246983#6 154148014#0 154148014#1 154148014#2"/>
    </vehicle>
    <vehicle id="rute_2_5" depart="25.00">
        <route edges="-675107653#5 -675107653#4 815241572 818969399 359244580#10 359244580#11 729090489 154148014#18 562021790#0 562021790#1 757390879#0 757390879#1 562021795#0 562021795#1 359245193 562021794#5 562021794#6 562021794#7 562021794#8 562021794#9 562021794#10 562021792 560361514#0 560361514#1 560361514#2 560361514#3 560361514#4 560361514#5 560361514#6 560361514#7 560361514#8 560361514#9 359245194 154148014#4 154148014#5 682199979 168336006#0 168336006#1 168336006#2 682059305#1 682059305#2 682059305#3 682059305#4 682059305#5 682059305#6 682059305#7 230287233#0 230287233#1 230287233#2 230291072"/>
    </vehicle>
    <vehicle id="rute_2_6" depart="25.00">
        <route edges="-675107653#5 -675107653#4 815241572 818969399 359244580#10 359244580#11 729090489 154148014#18 562021790#0 562021790#1 757390879#0 757390879#1 562021795#0 562021795#1 562021795#2 562021795#3 562021795#4 562021795#5 757373596 757373599 757373597#0 757373597#1 757373600#0 757373600#1 757373600#2 757373600#3 756081030#0 756081030#1 362347492#0 362347492#1 362347492#2 362347492#3 362347492#4 362347492#5 757091805#0 757091805#1 749662139 757373594 749662140#0 749662140#1 749662140#2 757092064#0 757092064#1 757092063 754594908#0 754594908#1 754594908#2 539383767#0 539383767#1"/>
    </vehicle>
    <vehicle id="rute_2_7" depart="25.00">
        <route edges="-675107653#5 -675107653#4 815241572 818969399 359244580#10 359244580#11 729090489 154148014#18 562021790#0 562021790#1 757390879#0 757390879#1 562021795#0 562021795#1 562021795#2 562021795#3 562021795#4 562021795#5 757373596 757373599 757373597#0 757373597#1 757373600#0 757373600#1 757373600#2 757373600#3 756081030#0 756081030#1 362347492#0 362347492#1 362347492#2 362347492#3 362347492#4 362347492#5 757091805#0 757091805#1 749662139 757373594 749662140#0 749662140#1 749662140#2 757092064#0 757092064#1 757092063 754594908#0 754594908#1 754594908#2 754594908#3 754594908#4 754594908#5 754594908#6 694954580 539383762#0 539383762#1 539383762#2 -846964388 539383765#3"/>
    </vehicle>
    <vehicle id="rute_2_8" depart="25.00">
        <route edges="-675107653#5 -675107653#4 815241572 818969399 359244580#10 359244580#11 729090489 154148014#18 562021790#0 562021790#1 757390879#0 757390879#1 562021795#0 562021795#1 359245193 562021794#5 562021794#6 562021794#7 562021794#8 562021794#9 562021794#10 562021792 560361514#0 560361514#1 560361514#2 560361514#3 560361514#4 560361514#5 560361514#6 560361514#7 560361514#8 560361514#9 560361514#10"/>
    </vehicle>
    <vehicle id="rute_2_9" depart="25.00">
        <route edges="-675107653#5 -675107653#4 815241572 818969399 359244580#10 359244580#11 729090489 154148014#18 562021790#0 562021790#1 757390879#0 757390879#1 562021795#0 562021795#1 359245193 562021794#5 562021794#6 562021794#7 562021794#8 562021794#9 562021794#10 562021792 560361514#0 560361514#1 560361514#2 560361514#3 560361514#4 560361514#5 560361514#6"/>
    </vehicle>
    <vehicle id="rute_2_10" depart="25.00">
        <route edges="-675107653#5 -675107653#4 815241572 818969399 359244580#10 359244580#11 729090489 154148014#18 562021790#0 562021790#1 757390879#0 757390879#1 562021795#0 562021795#1 562021795#2 562021795#3 562021795#4 562021795#5 757373596 757373599 757373597#0 757373597#1 757373600#0 757373600#1 757373600#2 757373600#3 757373598 771544256#3 757467199 562021794#0 562021794#1"/>
    </vehicle>
    <vehicle id="rute_2_11" depart="25.00">
        <route edges="-675107653#5 -675107653#4 815241572 818969399 359244580#10 359244580#11 729090489 154148014#18 562021790#0 562021790#1 757390879#0 757390879#1 562021795#0 562021795#1 562021795#2 562021795#3 562021795#4 562021795#5 757373596 757373599 757373597#0 757373597#1 757373600#0 757373600#1 757373600#2 757373600#3 757373598 757457244#0 757457244#1 757457244#2 757457244#3 479605450 154148013#6"/>
    </vehicle>
    <vehicle id="rute_2_12" depart="25.00">
        <route edges="-675107653#5 -675107653#4 815241572 818969399 359244580#10 359244580#11 729090489 154148014#18 562021790#0 562021790#1 757390879#0 757390879#1 562021795#0 562021795#1 562021795#2 562021795#3 562021795#4 562021795#5 757373596 757373599 757373597#0 757373597#1 757373600#0 757373600#1 757373600#2 757373600#3 756081030#0 756081030#1 362347492#0 362347492#1 362347492#2 362347492#3 362347492#4 362347492#5 757091805#0 757091805#1 749662139 757373594 749662140#0 749662140#1 749662140#2 757092064#0 757092064#1 757092063 754594908#0 754594908#1 754594908#2 754594908#3 754594908#4"/>
    </vehicle>
    <vehicle id="rute_2_13" depart="25.00">
        <route edges="-675107653#5 -675107653#4 815241572 818969399 359244580#10 359244580#11 729090489 154148014#18 562021790#0 562021790#1 757390879#0 757390879#1 562021795#0 562021795#1 562021795#2 562021795#3 562021795#4 562021795#5 757373596 757373599 757373597#0 757373597#1 757373600#0 757373600#1 757373600#2 757373600#3 756081030#0 756081030#1 362347492#0 362347492#1 362347492#2 362347492#3 362347492#4 362347492#5 757091805#0 757091805#1 749662139 757373594 749662140#0 749662140#1 749662140#2 757092064#0 757092064#1 757092063 754594908#0 754594908#1 754594908#2 754594908#3 754594908#4 754594908#5 754594908#6 694954580 539383768#5 539383768#6"/>
    </vehicle>
    <vehicle id="rute_2_14" depart="25.00">
        <route edges="-675107653#5 -675107653#4 815241572 818969399 359244580#10 359244580#11 729090489 154148014#18 562021790#0 562021790#1 757390879#0 757390879#1 562021795#0 562021795#1 562021795#2 562021795#3 562021795#4 562021795#5 757373596 757373599 757373597#0 757373597#1 757373600#0 757373600#1 757373600#2 757373600#3 756081030#0 756081030#1 362347492#0 362347492#1 362347492#2 362347492#3 362347492#4 362347492#5 757091805#0 757091805#1 749662139 757373594 749662140#0 749662140#1 749662140#2 757092064#0 757092064#1 757092063 754594908#0 754594908#1 754594908#2 754594908#3 754594908#4 754594908#5 754594908#6 754594908#7 754594908#8 754594908#9 754594908#10 754594908#11 757096026 674365071 674365070 539383768#1 539383768#2"/>
    </vehicle>
    <vehicle id="rute_2_15" depart="25.00">
        <route edges="-675107653#5 -675107653#4 815241572 818969399 359244580#10 359244580#11 729090489 154148014#18 562021790#0 562021790#1 757390879#0 757390879#1 562021795#0 562021795#1 562021795#2 562021795#3 562021795#4 562021795#5 757373596 757373599 757373597#0 757373597#1 757373600#0 757373600#1 757373600#2 757373600#3 756081030#0 756081030#1 362347492#0 362347492#1 362347492#2 362347492#3 362347492#4 362347492#5 757091805#0 757091805#1 749662139 757373594 749662140#0 749662140#1 749662140#2 757092064#0 757092064#1 757092063 754594908#0 754594908#1 754594908#2 754594908#3 754594908#4 754594908#5 754594908#6 754594908#7 754594908#8 754594908#9 754594908#10 754594908#11 754594908#12 894425583 894641852 676448722 894641850 894641853 539383768#0"/>
    </vehicle>
    <vehicle id="rute_3_0" depart="25.00">
        <route edges="359246993#0 359246993#1 819067603 560361514#9 359245194 154148014#4 154148014#5 154148014#6 154148014#7 154148014#8 154148014#9 154148014#10 154148014#11 154148014#12 154148014#13 154148014#14 154148014#15 154148014#16 154148014#17 154148014#18 562021790#0 562021790#1 757390879#0 757390879#1 562021795#0 562021795#1 562021795#2 562021795#3 562021795#4 562021795#5 757373596 757373599 757373597#0 757373597#1 757373600#0 757373600#1 757373600#2 757373600#3 757373598 757457244#0 757457244#1 757457244#2 757457244#3 757457244#4 359409621#0 359409616 359409594#2 359409594#0 697060688 697060687#0 -359409608"/>
    </vehicle>
    <vehicle id="rute_3_1" depart="25.00">
        <route edges="359246993#0 359246993#1 819067603 560361514#9 359245194 154148014#4 154148014#5 154148014#6 154148014#7 154148014#8 154148014#9 154148014#10 154148014#11 -484446266#8"/>
    </vehicle>
    <vehicle id="rute_3_2" depart="25.00">
        <route edges="359246993#0 359246993#1 819067603 560361514#9 359245194 154148014#4 154148014#5 154148014#6 154148014#7 154148014#8 154148014#9 154148014#10 154148014#11 154148014#12 154148014#13 359244613 359244580#0 815232744 818969401 -675107653#5"/>
    </vehicle>
    <vehicle id="rute_3_4" depart="25.00">
        <route edges="359246993#0 359246993#1 819067603 560361514#9 560361514#10 560361514#11 359246983#0 359246983#1 359246983#2 359246983#3 359246983#4 359246983#5 359246983#6 154148014#0 154148014#1 154148014#2"/>
    </vehicle>
    <vehicle id="rute_3_5" depart="25.00">
        <route edges="359246993#0 359246993#1 819067603 560361514#9 359245194 154148014#4 154148014#5 682199979 168336006#0 168336006#1 168336006#2 682059305#1 682059305#2 682059305#3 682059305#4 682059305#5 682059305#6 682059305#7 230287233#0 230287233#1 230287233#2 230291072"/>
    </vehicle>
    <vehicle id="rute_3_6" depart="25.00">
        <route edges="359246993#0 359246993#1 819067603 560361514#9 359245194 154148014#4 154148014#5 154148014#6 154148014#7 154148014#8 154148014#9 154148014#10 154148014#11 154148014#12 154148014#13 154148014#14 154148014#15 154148014#16 154148014#17 154148014#18 562021790#0 562021790#1 757390879#0 757390879#1 562021795#0 562021795#1 562021795#2 562021795#3 562021795#4 562021795#5 757373596 757373599 757373597#0 757373597#1 757373600#0 757373600#1 757373600#2 757373600#3 756081030#0 756081030#1 362347492#0 362347492#1 362347492#2 362347492#3 362347492#4 362347492#5 757091805#0 757091805#1 749662139 757373594 749662140#0 749662140#1 749662140#2 757092064#0 757092064#1 757092063 754594908#0 754594908#1 754594908#2 539383767#0 539383767#1"/>
    </vehicle>
    <vehicle id="rute_3_7" depart="25.00">
        <route edges="359246993#0 359246993#1 819067603 560361514#9 560361514#10 560361514#11 359246983#0 359246983#1 359246983#2 359246983#3 359246983#4 359247808#0 359247808#1 359247808#2 359247808#3 359247808#4 359247808#5 359247808#6 359247808#7 822180069#0 894641854#0 894641854#1 894641854#2 894641854#3 894641853 539383768#0 539383768#1 539383768#2 539383768#3 539383768#4 539383762#0 539383762#1 539383762#2 -846964388 539383765#3"/>
    </vehicle>
    <vehicle id="rute_3_8" depart="25.00">
        <route edges="359246993#0 359246993#1 819067603 560361514#9 560361514#10"/>
    </vehicle>
    <vehicle id="rute_3_9" depart="25.00">
        <route edges="359246993#0 359246993#1 819067603 560361514#9 359245194 154148014#4 154148014#5 154148014#6 154148014#7 154148014#8 154148014#9 359245191 560361514#6"/>
    </vehicle>
    <vehicle id="rute_3_10" depart="25.00">
        <route edges="359246993#0 359246993#1 819067603 560361514#9 359245194 154148014#4 154148014#5 154148014#6 154148014#7 154148014#8 154148014#9 154148014#10 154148014#11 154148014#12 154148014#13 154148014#14 154148014#15 154148014#16 154148014#17 154148014#18 562021790#0 562021790#1 757390879#0 757390879#1 562021795#0 562021795#1 562021795#2 562021795#3 562021795#4 562021795#5 757373596 757373599 757373597#0 757373597#1 757373600#0 757373600#1 757373600#2 757373600#3 757373598 771544256#3 757467199 562021794#0 562021794#1"/>
    </vehicle>
    <vehicle id="rute_3_11" depart="25.00">