<trips>
   <trip id="veh0_0" depart="25" from="-359409608" to="563587627"/>
   <trip id="veh0_1" depart="25" from="563587627" to="154148014#2"/>
   <trip id="veh0_2" depart="25" from="154148014#2" to="560361514#10"/>
   <trip id="veh0_3" depart="25" from="560361514#10" to="359246993#0"/>
   <trip id="veh0_4" depart="25" from="359246993#0" to="-484446266#8"/>
   <trip id="veh0_5" depart="25" from="-484446266#8" to="-359409608"/>
   <trip id="veh1_0" depart="25" from="-359409608" to="562549612#1"/>
   <trip id="veh1_1" depart="25" from="562549612#1" to="676492822"/>
   <trip id="veh1_2" depart="25" from="676492822" to="359247300#0"/>
   <trip id="veh1_3" depart="25" from="359247300#0" to="359247300#1"/>
   <trip id="veh1_4" depart="25" from="359247300#1" to="539383768#2"/>
   <trip id="veh1_5" depart="25" from="539383768#2" to="-359409608"/>
   <trip id="veh2_0" depart="25" from="-359409608" to="539383768#0"/>
   <trip id="veh2_1" depart="25" from="539383768#0" to="230291072"/>
   <trip id="veh2_2" depart="25" from="230291072" to="560361514#6"/>
   <trip id="veh2_3" depart="25" from="560361514#6" to="562021790#0"/>
   <trip id="veh2_4" depart="25" from="562021790#0" to="359408298#2"/>
   <trip id="veh2_5" depart="25" from="359408298#2" to="-359409608"/>
   <trip id="veh3_0" depart="25" from="-359409608" to="362347497#7"/>
   <trip id="veh3_1" depart="25" from="362347497#7" to="539383767#1"/>
   <trip id="veh3_2" depart="25" from="539383767#1" to="539383765#3"/>
   <trip id="veh3_3" depart="25" from="539383765#3" to="539383768#6"/>
   <trip id="veh3_4" depart="25" from="539383768#6" to="154148013#6"/>
   <trip id="veh3_5" depart="25" from="154148013#6" to="-359409608"/>
   <trip id="veh4_0" depart="25" from="-359409608" to="-675107653#5"/>
   <trip id="veh4_1" depart="25" from="-675107653#5" to="359247813#2"/>
   <trip id="veh4_2" depart="25" from="359247813#2" to="754594908#4"/>
   <trip id="veh4_3" depart="25" from="754594908#4" to="-359409608"/>
   <trip id="veh5_0" depart="25" from="-359409608" to="398041366#1"/>
   <trip id="veh5_1" depart="25" from="398041366#1" to="562021794#1"/>
   <trip id="veh5_2" depart="25" from="562021794#1" to="-359409608"/>
</trips>
