<?xml version="1.0" encoding="UTF-8"?>

<!-- generated on 06/23/21 13:19:45 by Eclipse SUMO duarouter Version 1.8.0
<configuration xmlns:xsi="http://www.w3.org/2001/XMLSchema-instance" xsi:noNamespaceSchemaLocation="http://sumo.dlr.de/xsd/duarouterConfiguration.xsd">

    <input>
        <net-file value="1/../BSD.net.xml"/>
        <route-files value="1/../0\bsd_000.rou.alt.xml"/>
        <weight-files value="1/..\0\dump_000_900.xml"/>
    </input>

    <output>
        <output-file value="1/bsd_001.rou.xml"/>
        <alternatives-output value="1/bsd_001.rou.alt.xml"/>
        <exit-times value="false"/>
    </output>

    <processing>
        <max-alternatives value="5"/>
        <with-taz value="false"/>
        <weights.expand value="true"/>
        <routing-algorithm value="dijkstra"/>
        <gawron.beta value="0.9"/>
        <gawron.a value="0.5"/>
        <keep-all-routes value="false"/>
        <logit value="false"/>
        <logit.beta value="0.15"/>
        <logit.gamma value="1"/>
    </processing>

    <time>
        <begin value="0"/>
    </time>

    <report>
        <verbose value="false"/>
        <no-warnings value="false"/>
        <ignore-errors value="false"/>
        <no-step-log value="true"/>
    </report>

    <random_number>
        <random value="false"/>
    </random_number>

</configuration>
-->

<routes xmlns:xsi="http://www.w3.org/2001/XMLSchema-instance" xsi:noNamespaceSchemaLocation="http://sumo.dlr.de/xsd/routes_file.xsd">
    <vehicle id="veh0_0" depart="25.00">
        <route edges="-359409608 359409609#4 -697060688 359409594#1 -359409616 359409621#1 757457244#6 479605451 154148013#5 154148013#6 757467200#0 757467200#1 775190282#0 775190282#1 775190281 757373595#0 757373595#1 757373595#2 775190280 359245321 359245322#0 359245322#1 359245322#2 359245322#3 359245322#4 359245322#5 359245322#6 359245322#7 359245322#8 359245322#9 359245322#10 359245322#11 359245322#12 359245322#13 359245322#14 359245322#15 359245322#16 359245322#17 359245322#18 359245322#19 359245322#20 359245322#21 359245322#22 562631149 739766913#1 756050841#0 756050841#1 554170826#0 554170826#1 554170826#2 554170826#3 554170826#4 554170826#5 554170826#6 554170826#7 554170826#8 554170826#9 554170826#10 554170826#11 554170826#12 554170826#13 756050838 756050837 166823567 166823572#0 166823572#1 55677576 55677537#0 55677537#1 55677537#2 55677537#3 742392669#0 742392669#1 742392669#2 742392669#3 564196738#0 564196738#1 564196738#2 564196738#3 564196738#4 564196738#5 765712818#0 564196743#0 564196743#1 564196743#2 564196743#3 -564196367 -363377195#3 -363377195#2 -363377195#1 -363377195#0 812543682 363373882#3 363373882#0"/>
    </vehicle>
    <vehicle id="veh0_1" depart="25.00">
        <route edges="363373882#0 363373882#1 363377194 363377195#0 363377195#1 363377195#2 363377195#3 564196367 -564196743#3 -564196743#2 -564196743#1 -564196743#0 -765712818#0 742392668#0 742392668#1 742392668#2 742392668#3 742392668#4 742392668#5 742392668#6 564196375#0 564196375#1 564196375#2 564196375#3 564196375#4 564196375#5 55677539 55677575#0 55677575#1 55677575#2 55677509 756050840#0 756050840#1 756050840#2 756050840#3 756050840#4 756050840#5 756050840#6 756050840#7 756050840#8 756050839#0 756050839#1 756050839#2 756081033#0 756081033#1 756081033#2 766136205#0 766136205#1 766136205#2 766136205#3 766136205#4 766136205#5 766136205#6 766136205#7 398181550#0 398181550#1 398181550#2 398181550#3 398181550#4 817427531 168328149#5 168328152#0"/>
    </vehicle>
    <vehicle id="veh0_2" depart="25.00">
        <route edges="168328152#0 -168328152#0 168328149#6 168328149#7 168328149#8 168328149#9 168328149#10 168328149#11 168328149#12 168328149#13 168328149#14 168328149#15 168328149#16 562631155 778737823 766136205#7 766136205#8 766136205#9 766136204 766136203 766136202 766136201 766136200"/>
    </vehicle>
    <vehicle id="veh0_3" depart="25.00">
        <route edges="766136200 766136199#0 766136199#1 766136198 264106336 264106329 776405490#0 776405490#1 756081032 758136380 749662141 757088117#0 757088117#1 757089161 757373598 757457244#0 757457244#1 757457244#2 757457244#3 757457244#4 359409621#0 359409616 359409594#2 359409594#0 697060688 697060687#0 -359409608"/>
    </vehicle>
    <vehicle id="veh1_0" depart="25.00">
        <route edges="-359409608 359409609#4 -697060688 359409594#1 -359409616 359409621#1 757457244#6 479605451 154148013#5 154148013#6 757467200#0 757467200#1 775190282#0 775190282#1 775190281 757373595#0 757373595#1 757373595#2 775190280 359245321 359245322#0 359245322#1 359245322#2 359245322#3 359245322#4 359245322#5 359245322#6 359245322#7 359245322#8 359245322#9 359245322#10 359245322#11 359245322#12 359245322#13 359245322#14 359245322#15 359245322#16 359245322#17 359245322#18 359245322#19 359245322#20 359245322#21 359245322#22 562631149 766156748#0 766156748#1 766156747 766156746 766156745#0 766156745#1 766156745#2 766156745#3 766156745#4 46560873#0 46560873#1 46560873#2 46560873#3 46560873#4 46560873#5 717660813#0 717660813#1 717660813#2 717660813#3 717660813#4 717660813#5 717660813#6 717660813#7 717660813#8 717660813#9 717660813#10 717660813#11 562356519 894402596 893429032 562356520#0 562356520#1 562356520#2 562356520#3 562356520#4 562356520#5 562356520#6 562356520#7 562356520#8 562356520#9 362987772 562356522#0 781684931#0 -56457086#3 362985244#6 362985244#7"/>
    </vehicle>
    <vehicle id="veh1_1" depart="25.00">
        <route edges="362985244#7 562356522#2 562356522#3 562356522#4 562356522#5 562356522#6 562356522#7 562356521 779447280#0 779447280#1 779447279 756370396#0 756370396#1 756370396#2 756370396#3 756370396#4 756370396#5 756370396#6 756370396#7 756370396#8 756370395#0 756370395#1 756370395#2 756370394 682796715 754707686 717660813#0 717660813#1 717660813#2 682384080#0 682384080#1 682384080#2 822162696#4 358237489#0"/>
    </vehicle>
    <vehicle id="veh1_2" depart="25.00">
        <route edges="358237489#0 358237489#1 358237489#2 717660813#6 717660813#7 717660813#8 717660813#9 717660813#10 717660813#11 562356519 894402596 893429032 562356520#0 562356520#1 562356520#2 562356520#3 562356520#4 562356520#5 562356520#6 562356520#7 562356520#8 562356520#9 362987772 562356522#0 781684931#0"/>
    </vehicle>
    <vehicle id="veh1_3" depart="25.00">
        <route edges="781684931#0 56457086#4 56457086#5 56457086#6 56457086#7 56457086#8 56457086#9 56457086#10 56457086#11 56457086#12 362985258#0"/>
    </vehicle>
    <vehicle id="veh1_4" depart="25.00">
        <route edges="362985258#0 362985258#1 362985241#1 362985252#0 362985252#1 -56457086#8 -56457086#7 362985249#6 762925663 566981938#2 566981938#3 566981938#4 566981938#5 566981938#6 566981938#7 230078482 893425206#18 577903814#0 577903814#1 577903814#2 577903814#3 577903814#4 577903814#5 577903814#6 577903814#7 577903814#8 577903814#9 577903814#10 776392834#0 776392834#1 776392835#0 776392835#1 776392835#2 552661748#0 552661748#1 356342316#0 356342316#1 356342316#2 356342314 356342309 219134455 757457241#0 757457241#1 757457241#2 757457240 757457238 154148013#1 154148013#2 154148013#3 154148013#4 154148013#5 -479605450 757457244#4 359409621#0 359409616 359409594#2 359409594#0 697060688 697060687#0 -359409608"/>
    </vehicle>
    <vehicle id="veh2_0" depart="25.00">
        <route edges="-359409608 359409609#4 -697060688 359409594#1 -359409616 359409621#1 757457244#6 479605451 154148013#5 154148013#6 757467200#0 757467200#1 775190282#0 775190282#1 775190281 757373595#0 757373595#1 757373595#2 775190280 359245321 359245322#0 359245322#1 359245322#2 359245322#3 359245322#4 359245322#5 359245322#6 359245322#7 359245322#8 359245322#9 359245322#10 359245322#11 359245322#12 359245322#13 359245322#14 359245322#15 359245322#16 359245322#17 359245322#18 359245322#19 359245322#20 359245322#21 359245322#22 562631149 766156748#0 766156748#1 766156747 766156746 766156745#0 766156745#1 766156745#2 766156745#3 766156745#4 754707680#0 754707680#1 60863226#0 60863226#1 60863226#2 60863226#3 60863226#4 60863226#5 60863226#6 60863226#7 60863226#8 60863226#9 754709426 754709427 754978724 754685435 754978725 754685438#0 900487875 756394943 363359023#2 363359023#3 363359023#4 363359023#5 -363359023#5"/>
    </vehicle>
    <vehicle id="veh2_1" depart="25.00">
        <route edges="-363359023#5 -363359023#4 -363359023#3 -363359023#2 -363359023#1 754964067 756394942 900487874 754685437#2 754685437#3 754685436 754685434 754709424 60863228#0 60863228#1 60863228#2 60863228#3 60863228#4 60863228#5 60863228#6 754707679#0 754707679#1 754707679#2 363002237#0 363002237#1 363002237#2 363002237#3 363002237#4"/>
    </vehicle>
    <vehicle id="veh2_2" depart="25.00">
        <route edges="363002237#4 363002237#5 363002237#6 363002237#7 756043919#2 756043919#3 756050844#0 756050844#1 739766913#0 739766913#1 682641313 756081033#0 756081033#1 756081033#2 766136205#0 766136205#1 766136205#2 766136205#3 396051497#0 396051497#1 588529254#1 588529254#2 588529254#3 588529254#4 588529254#5 -264106317#11 -264106317#10 -264106317#9 -264106317#8 -264106317#7 -264106317#6 -264106317#5 -264106317#4 -264106317#3 -264106317#2 -264106317#1 -264106317#0 818749258 264106326 818749259#0 818749259#1 -219064998#6 -219064998#5 -219064998#4 -219064998#3 -219064998#2 -219064998#1 -219064998#0 762915595 219064996#8 219064996#0 219064996#1 219064996#2 188798028#0 -562549612#1 562549612#1"/>
    </vehicle>
    <vehicle id="veh2_3" depart="25.00">
        <route edges="562549612#1 188798028#1 188798026 188798030#0 588829868#0 188798031#1 562549606#0 562549606#1 562549606#2 560361514#5 -359245191 154148014#10 154148014#11 154148014#12 154148014#13 154148014#14 154148014#15 154148014#16 154148014#17 154148014#18 562021790#0 562021790#1 757390879#0 757390879#1 562021795#0 562021795#1 562021795#2 562021795#3 562021795#4 562021795#5 757373596 757373599 757373597#0 757373597#1 757373600#0 757373600#1 757373600#2 757373600#3 757373598 757457244#0 757457244#1 757457244#2 757457244#3 757457244#4 359409621#0 359409616 359409594#2 359409594#0 697060688 697060687#0 -359409608"/>
    </vehicle>
    <vehicle id="veh3_0" depart="25.00">
        <route edges="-359409608 359409609#4 -697060688 359409594#1 -359409616 359409621#1 757457244#6 479605451 154148013#5 154148013#6 757467200#0 757467200#1 757467199 562021794#0 562021794#1 562021794#2 562021794#3 562021794#4 562021794#5 562021794#6 562021794#7 562021794#8 562021794#9 562021794#10 562021792 560361514#0 560361514#1 560361514#2 560361514#3 560361514#4 560361514#5 560361514#6 560361514#7 560361514#8 560361514#9 359245194 154148014#4 154148014#5 682199979 168336006#0 168336006#1 168336006#2 682059305#1 682059305#2 168336010 168336003#0 359244599 359244608#0 359244608#1 359244608#2 359244597#1"/>
    </vehicle>
    <vehicle id="veh3_1" depart="25.00">
        <route edges="359244597#1 -359244597#1 -359244608#2 -359244608#1 -359244608#0 359244608#0"/>
    </vehicle>
    <vehicle id="veh3_2" depart="25.00">
        <route edges="359244608#0 -359244608#0 588829874 -168336003#1 -168336003#0 168335996 682059305#5 563587648 230291075#5 230291075#0 230291075#1 230291076#0 230291076#1 230291076#2 588829923#0 -233703186#0 233703186#0"/>
    </vehicle>
    <vehicle id="veh3_3" depart="25.00">
        <route edges="233703186#0 -588829923#0 233703187#0 233703189#0 233703189#1 230291075#3 230291075#4 -563587648 682059305#6 168335998 168336017 676448723 894641852 676448722 894641850 894641853 539383768#0 539383768#1 539383768#2"/>
    </vehicle>
    <vehicle id="veh3_4" depart="25.00">
        <route edges="539383768#2 539383768#3 539383768#4 539383768#5 539383768#6 539383768#7 539383768#8 539383768#9 539383768#10 539383768#11 539383768#12 539383768#13 539383768#14 539383768#15 777631198 563175146#0 563175146#1 771544256#0 757467201 757457244#2 757457244#3 757457244#4 359409621#0 359409616 359409594#2 359409594#0 697060688 697060687#0 -359409608"/>
    </vehicle>
    <vehicle id="veh4_0" depart="25.00">
        <route edges="-359409608 359409609#4 -697060688 359409594#1 -359409616 359409621#1 757457244#6 479605451 154148013#5 154148013#6 757467200#0 757467200#1 757467199 562021794#0 562021794#1 562021794#2 562021794#3 562021794#4 562021794#5 562021794#6 562021794#7 562021794#8 562021794#9 562021794#10 562021792 560361514#0 560361514#1 560361514#2 560361514#3 560361514#4 -562549606#2 -562549606#1 -562549606#0 188798031#2 55677625 762915601#0 762915601#1 219064996#4 219064996#5 219064996#6 219064996#7 219064996#8 219064996#0 676436709 188798027#0 188798027#1 188798027#2 188798027#3 188798027#4 188798027#5 188798027#6 740137790#0 740137790#1 740137790#2 740137790#3 740137790#4 740137790#5 740137790#6 740137790#7 740137790#8 740137790#9 740137790#10 740137790#11 740137790#12 740137790#13 740137790#14 740137790#15 740137790#16 740137790#17 740137790#18 740137790#19 740137791#0 740137791#1 740137791#2 740137791#3 -563587584 -563587585#0"/>
    </vehicle>
    <vehicle id="veh4_1" depart="25.00">
        <route edges="-563587585#0 -563587587#0 -740137791#0 -740137790#19 -740137790#18 -740137790#17 -740137790#16 -740137790#15 -740137790#14 -740137790#13 -740137790#12 -740137790#11 -740137790#10 -740137790#9 -740137790#8 -740137790#7 -740137790#6 -740137790#5 -740137790#4 -740137790#3 -740137790#2 -740137790#1 -740137790#0 -188798027#6 -188798027#5 -188798027#4 -188798027#3 -188798027#2 -188798027#1 -188798027#0 676436710 219064996#2 219064996#3 219064996#4 219064996#5 219064996#6 762915596 219064998#0 219064998#1 676492821 676492822"/>
    </vehicle>
    <vehicle id="veh4_2" depart="25.00">
        <route edges="676492822 -219064998#0 762915595 219064996#8 219064996#0 219064996#1 219064996#2 188798028#0 188798028#1 188798026 188798030#0 188798030#1 -359246996#6 -359246996#5 -359246996#4 -359246996#3 -359246996#2 -359246996#1 -359246996#0 562142025 359246983#2 359247300#0 359247300#1 359247300#2 359247642 -359247644#3 563587627"/>
    </vehicle>
    <vehicle id="veh4_3" depart="25.00">
        <route edges="563587627 588829880 588829879 359247644#2 359247644#3 676171783 359247300#4 359247300#5 359247300#6 359247300#7 359247300#8 359246983#4 359246983#5 359246983#6 154148014#0 154148014#1 154148014#2 154148014#3 154148014#4 154148014#5 154148014#6 154148014#7 154148014#8 154148014#9 154148014#10 154148014#11 154148014#12 154148014#13 154148014#14 154148014#15 154148014#16 154148014#17 154148014#18 562021790#0 562021790#1 757390879#0 757390879#1 562021795#0 562021795#1 562021795#2 562021795#3 562021795#4 562021795#5 757373596 757373599 757373597#0 757373597#1 757373600#0 757373600#1 757373600#2 757373600#3 757373598 757457244#0 757457244#1 757457244#2 757457244#3 757457244#4 359409621#0 359409616 359409594#2 359409594#0 697060688 697060687#0 -359409608"/>
    </vehicle>
    <vehicle id="veh5_0" depart="25.00">
        <route edges="-359409608 359409609#4 -697060688 359409594#1 -359409616 359409621#1 757457244#6 479605451 154148013#5 154148013#6 757467200#0 757467200#1 757467199 757089161 756081030#0 756081030#1 362347492#0 362347492#1 362347492#2 362347492#3 362347492#4 362347492#5 757091805#0 757091805#1 749662139 757373594 749662140#0 749662140#1 749662140#2 757092064#0 757092064#1 757092063 754594908#0 754594908#1 754594908#2 754594908#3 754594908#4 754594908#5 754594908#6 754594908#7 754594908#8 754594908#9 754594908#10 754594908#11 754594908#12 894641851 -168336017 168336015 230287233#0 230287233#1 230287233#2 230291072"/>
    </vehicle>
    <vehicle id="veh5_1" depart="25.00">
        <route edges="230291072 -230287236#1 -230287236#0 -230287233#0 -682059305#7 168335998 168336017 676448723 894641852 676448722 894641850 894641853 539383768#0"/>
    </vehicle>
    <vehicle id="veh5_2" depart="25.00">
        <route edges="539383768#0 -674365070 -674365071 -757096026 754594908#12 894425583 894425582 757097398#0 757097398#1 563182107#0 563182107#1 563182107#2 563182107#3 563182107#4 563182107#5 563182107#6 563182107#7 563182107#8 563182107#9 563182107#10 563182107#11 563182107#12 359246983#6 154148014#0 154148014#1 154148014#2 154148014#3 154148014#4 154148014#5 154148014#6 154148014#7 359245192 560361514#7 359246985 676171779#0 676171779#1 359246990#2 -359246991#1 359246989#0 359246989#1 359246989#2 -359246992#1 359246990#0 359246993#0"/>
    </vehicle>
    <vehicle id="veh5_3" depart="25.00">
        <route edges="359246993#0 359246993#1 819067603 560361514#9 560361514#10"/>
    </vehicle>
    <vehicle id="veh5_4" depart="25.00">
        <route edges="560361514#10 560361514#11 359246983#0 359246983#1 359246983#2 359246983#3 359246983#4 359246983#5 359246983#6 154148014#0 154148014#1 154148014#2 154148014#3 154148014#4 154148014#5 154148014#6 154148014#7 154148014#8 154148014#9 154148014#10 154148014#11 154148014#12 154148014#13 154148014#14 154148014#15 154148014#16 154148014#17 154148014#18 562021790#0"/>
    </vehicle>
    <vehicle id="veh5_5" depart="25.00">
        <route edges="562021790#0 562021790#1 757390879#0 757390879#1 562021795#0 562021795#1 562021795#2 562021795#3 562021795#4 562021795#5 757373596 757373599 757373597#0 757373597#1 757373600#0 757373600#1 757373600#2 757373600#3 757373598 757457244#0 757457244#1 757457244#2 757457244#3 757457244#4 359409621#0 359409616 359409594#2 359409594#0 697060688 697060687#0 -359409608"/>
    </vehicle>
    <vehicle id="veh6_0" depart="25.00">
        <route edges="-359409608 359409609#4 -697060688 359409594#1 -359409616 359409621#1 757457244#6 479605451 154148013#5 154148013#6 757467200#0 757467200#1 757467199 562021794#0 562021794#1 562021794#2 562021794#3 562021794#4 562021794#5 562021794#6 562021794#7 562021794#8 562021794#9 562021794#10 562021792 560361514#0 560361514#1 560361514#2 560361514#3 560361514#4 560361514#5 560361514#6 560361514#7 560361514#8 560361514#9 560361514#10 560361514#11 359246983#0 359246983#1 359246983#2 359246983#3 359246983#4 359246983#5 359246983#6 154148014#0 154148014#1 154148014#2"/>
    </vehicle>
    <vehicle id="veh6_1" depart="25.00">
        <route edges="154148014#2 154148014#3 154148014#4 154148014#5 682199979 168336006#0 233703198 880063507 233703199#0 -233703205#1 233703205#1"/>
    </vehicle>
    <vehicle id="veh6_2" depart="25.00">
        <route edges="233703205#1 -233703199#0 -880063507 233703197 -168336006#1 -168336006#0 682199980 154148014#7 359245192 560361514#7 560361514#8 560361514#9 560361514#10 560361514#11 359246983#0 359246983#1 359246983#2 359247300#0"/>
    </vehicle>
    <vehicle id="veh6_3" depart="25.00">
        <route edges="359247300#0 -359247297 359247300#8 359246983#4 359246983#5 359246983#6 154148014#0 154148014#1 154148014#2 154148014#3 154148014#4 154148014#5 154148014#6 154148014#7 154148014#8 154148014#9 154148014#10 154148014#11 -484446266#8"/>
    </vehicle>
    <vehicle id="veh6_4" depart="25.00">
        <route edges="-484446266#8 484446266#8 154148014#12 154148014#13 154148014#14 154148014#15 154148014#16 154148014#17 154148014#18 562021790#0 562021790#1 757390879#0 757390879#1 562021795#0 562021795#1 562021795#2 562021795#3 562021795#4 562021795#5 757373596 757373599 757373597#0 757373597#1 757373600#0 757373600#1 757373600#2 757373600#3 757373598 757457244#0 757457244#1 757457244#2 757457244#3 479605450 154148013#6"/>
    </vehicle>
    <vehicle id="veh6_5" depart="25.00">
        <route edges="154148013#6 757467200#0 757467200#1 757467199 757089161 757373598 757457244#0 757457244#1 757457244#2 757457244#3 757457244#4 359409621#0 359409616 359409594#2 359409594#0 697060688 697060687#0 -359409608"/>
    </vehicle>
    <vehicle id="veh7_0" depart="25.00">
        <route edges="-359409608 359409609#4 -697060688 359409594#1 -359409616 359409621#1 757457244#6 479605451 154148013#5 154148013#6 757467200#0 757467200#1 775190282#0 775190282#1 775190281 757373595#0 757373595#1 757373595#2 775190280 359245321 359245322#0 359245322#1 359245322#2 359245322#3 359245322#4 359245322#5 359245322#6 359245322#7 359245322#8 359245322#9 359245322#10 359245322#11 359245322#12 359245322#13 359245322#14 359245322#15 359245322#16 359245322#17 359245322#18 359245322#19 359245322#20 359245322#21 359245322#22 562631149 766156748#0 766156748#1 766156747 766156746 766156745#0 766156745#1 766156745#2 766156745#3 766156745#4 46560873#0 46560873#1 46560873#2 46560873#3 46560873#4 46560873#5 717660813#0 717660813#1 717660813#2 717660813#3 717660813#4 717660813#5 717660813#6 717660813#7 717660813#8 717660813#9 717660813#10 717660813#11 562356519 894402596 893429032 562356520#0 562356520#1 562356520#2 562356520#3 562356520#4 562356520#5 562356520#6 562356520#7 562356520#8 562356520#9 362987772 562356522#0 781684931#0 781684931#1 781684931#2 781684931#3 781684931#4 781684931#5 362985261#5 362985261#6 -362985261#6"/>
    </vehicle>
    <vehicle id="veh7_1" depart="25.00">
        <route edges="-362985261#6 -362985261#5 -362985261#4 362985244#1 -362985251#2 -362985251#1 362985250#1 362985250#2 362985243#0 362985249#5 362985249#6 762925663 566981938#2 566981938#3 566981938#4 566981938#5 566981938#6 566981938#7 756043922#0 756043922#1 756043922#2 756043922#3 739462179#0 739462179#1 739462179#2 739462179#3 739462179#4 739462179#5 739462179#6 739462179#7 739462179#8 739462179#9 739462179#10 739462179#11 739462179#12 739462179#13 739462179#14 739462179#15 739462179#16 739462179#17 756043918 398181557 55678885#6 55678885#7 55678885#8 55678885#9 55678885#10 55678885#11 55678885#12 55678885#13 55678885#14 55678885#15 55678885#16 55678885#17 168328149#0 168328149#1 168328149#2 398181556 398181550#7 449397588#0 449397588#1 -362979854#4 403676096#0"/>
    </vehicle>
    <vehicle id="veh7_2" depart="25.00">
        <route edges="403676096#0 403676096#1 398181550#9 398181555 168328149#2 168328149#3 168328149#4 168328149#5 168328149#6 168328149#7 168328149#8 168328149#9 168328149#10 168328149#11 168328149#12 168328149#13 168328149#14 168328149#15 168328149#16 562631155 778737823 766136205#7 766136205#8 766136205#9 766136204 766136203 766136202 766136201 766136200 766136199#0 766136199#1 766136198 264106336 264106329 776405490#0 776405490#1 756081032 758136380 749662141 757088117#0 757088117#1 757089161 757373598 757457244#0 757457244#1 757457244#2 359408298#0 359408298#1 359408298#2"/>
    </vehicle>
    <vehicle id="veh7_3" depart="25.00">
        <route edges="359408298#2 -359408298#2 -359408298#1 -359408298#0 757457244#3 757457244#4 359409621#0 359409616 359409594#2 359409594#0 697060688 697060687#0 -359409608"/>
    </vehicle>
    <vehicle id="veh8_0" depart="25.00">
        <route edges="-359409608 359409609#4 -697060688 359409594#1 -359409616 359409621#1 757457244#6 757457244#7 757457244#8 757457244#9 778736460 757457243 588516941#1 588516941#2 588516941#3 588516941#4 588516941#5 588516941#6 588516941#7 588516941#8 588516941#9 588516941#10 588516941#11 588516941#12 588516941#13 588516941#14 588516941#15 588516941#16 588516941#17 588516941#18 588516941#19 749313694#1 757411376 749313861#0 749313861#1 749313861#2 749313861#3 749313861#4 749313860#0 749313860#1 754594909#0 754594909#1 754594909#2 754594909#3 552421297 749988360#11 749988360#12 749988360#13 749988360#14 749988360#15 749988360#16 749988360#17 562430376#0 562430376#1 562430376#2 562430376#3 562430376#4 562430376#5 562430376#6 562430376#7 562430376#8 562430376#9 562430375 843504985#0 843504985#1 843504985#2 843504985#3 843504985#4 843504985#5 843504985#6 843504985#7 843504985#8 843504985#9 843504985#10 843504985#11 843504985#12 843504985#13 843504985#14 843504985#15 843504985#16 843504985#17 843504985#18 843504985#19 843504985#20 843504985#21 843504982 729152092#1 729152092#2"/>
    </vehicle>
    <vehicle id="veh8_1" depart="25.00">
        <route edges="729152092#2 729152088#0 729152088#1 729152088#2 729152088#3 729152088#4 729152088#5 729152088#6 729152088#7 729152088#8 729152088#9 729152088#10 362347497#0 362347497#1 362347497#2 362347497#3 362347497#4 362347497#5 -479025491#3 -479025491#2 -479025491#1 -479025491#0 479025492#4 479025492#5 479025492#6 732829172#0 732829172#1 732829172#2 732829172#3 732829172#4 732829172#5 732829172#6 732829172#7 732829172#8 732829172#9 757450362#0 757450362#1 757450362#2 757366277 479199742#1"/>
    </vehicle>
    <vehicle id="veh8_2" depart="25.00">
        <route edges="479199742#1 479199742#2 479199742#3 479199742#4 479199742#5 479199742#6 479199742#7 729152092#0 729152092#1 729152092#2 729152088#0 729152088#1 729152088#2 729152088#3 729152088#4 729152088#5 729152088#6 729152088#7 729152088#8 729152088#9 729152088#10 362347497#0 362347497#1 362347497#2 362347497#3 362347497#4 362347497#5 362347497#6 362347497#7"/>
    </vehicle>
    <vehicle id="veh8_3" depart="25.00">
        <route edges="362347497#7 362347497#8 362347497#9 885403818#0 885403818#1 885403818#2 885403818#3 777631198 563175146#0 563175146#1 771544256#0 757467201 757457244#2 757457244#3 757457244#4 359409621#0 359409616 359409594#2 359409594#0 697060688 697060687#0 -359409608"/>
    </vehicle>
    <vehicle id="veh9_0" depart="25.00">
        <route edges="-359409608 359409609#4 -697060688 359409594#1 -359409616 359409621#1 757457244#6 479605451 154148013#5 154148013#6 757467200#0 757467200#1 757467199 757089161 756081030#0 756081030#1 362347492#0 362347492#1 362347492#2 362347492#3 362347492#4 362347492#5 757091805#0 757091805#1 749662139 757373594 749662140#0 749662140#1 749662140#2 757092064#0 757092064#1 757092063 754594908#0 754594908#1 754594908#2 754594908#3 754594908#4 754594908#5 754594908#6 694954580 539383768#5 539383768#6 539383768#7 539383765#0 539383765#1 359247812 539383762#7"/>
    </vehicle>
    <vehicle id="veh9_1" depart="25.00">
        <route edges="539383762#7 539383762#8 539383762#9 539383768#9 539383768#10 539383768#11 539383768#12 539383768#13 539383768#14 563175147#0 563175147#1 563175147#2 563175147#3 563175147#4 563175147#5 563175147#6"/>
    </vehicle>
    <vehicle id="veh9_2" depart="25.00">
        <route edges="563175147#6 -359246245 362347497#6 362347497#7 362347497#8 362347497#9 885403818#0 885403818#1 885403818#2 885403818#3 777631198 777637429 757092064#0 757092064#1 757092063 754594908#0 754594908#1 754594908#2 539383767#0 539383767#1"/>
    </vehicle>
    <vehicle id="veh9_3" depart="25.00">
        <route edges="539383767#1 539383767#2 539383767#3 539383767#4 539383767#5 539383767#6 539383767#7 398041367#3 398041367#4 398041367#5 398041367#6 398041367#7 562430406#5 562430406#6 562430406#7 562430406#8"/>
    </vehicle>
    <vehicle id="veh9_4" depart="25.00">
        <route edges="562430406#8 562430406#9 562021795#4 562021795#5 757373596 757373599 757373597#0 757373597#1 757373600#0 757373600#1 757373600#2 757373600#3 757373598 757457244#0 757457244#1 757457244#2 757457244#3 757457244#4 359409621#0 359409616 359409594#2 359409594#0 697060688 697060687#0 -359409608"/>
    </vehicle>
    <vehicle id="veh10_0" depart="25.00">
        <route edges="-359409608 359409609#4 -697060688 359409594#1 -359409616 359409621#1 757457244#6 757457244#7 757457244#8 757457244#9 778736460 757457243 588516941#1 588516941#2 588516941#3 588516941#4 588516941#5 588516941#6 588516941#7 588516941#8 588516941#9 588516941#10 588516941#11 588516941#12 588516941#13 588516941#14 588516941#15 588516941#16 588516941#17 588516941#18 588516941#19 758430839 757430742 757430741 757436793 757436792 757436791#0 757436791#1 757436790 757436789 757441791 219134653#0 219134653#1 219134653#2 219134653#3 219134653#4 219134653#5 219134653#6 757450364#0"/>
    </vehicle>
    <vehicle id="veh10_1" depart="25.00">
        <route edges="757450364#0 757450364#1 757450363 897757430 897757432 219134452#0 219134452#1 219134452#2 219134452#3 219134452#4 219134452#5 219134452#6 219134452#7 219134452#8 897756045 897756046#0 897756046#1 897756046#2 897756046#3 897756046#4 897756046#5 897756046#6 897756046#7 897756046#8 897756046#9 897756046#10 758430840 749313694#0 749313694#1 757411376 749313861#0 749313861#1 749313861#2 749313861#3 749313861#4 749313860#0 749313860#1 754594909#0 754594909#1 754594909#2 754594909#3 749313693#0 749313693#1 749313693#2 749313693#3 749313693#4 749313693#5 749313693#6 749313693#7 749313693#8 749313693#9 749313693#10 749313693#11 754598165#0 754598165#1 754598165#2 777637429 757092064#0 757092064#1 757092063 754594908#0 754594908#1 754594908#2 754594908#3 754594908#4 754594908#5 754594908#6 694954580 539383762#0 539383762#1 539383762#2 -846964388 539383765#3"/>
    </vehicle>
    <vehicle id="veh10_2" depart="25.00">
        <route edges="539383765#3 539383768#6"/>
    </vehicle>
    <vehicle id="veh10_3" depart="25.00">
        <route edges="539383768#6 539383768#7 539383768#8 539383768#9 539383768#10 539383768#11 539383768#12 539383768#13 539383768#14 539383768#15 749988360#0 749988360#1 749988360#2 749988360#3 749988360#4 749988360#5 749988360#6 749988360#7 749988360#8 749988360#9 749988360#10 -552421297 749313693#0 749313693#1 749313693#2 749313693#3 359408277#0 -359408277#0"/>
    </vehicle>
    <vehicle id="veh10_4" depart="25.00">
        <route edges="-359408277#0 749313693#4 749313693#5 749313693#6 749313693#7 749313693#8 749313693#9 749313693#10 749313693#11 754598165#0 754598165#1 754598165#2 563175146#0 563175146#1 771544256#0 757467201 757457244#2 757457244#3 479605450 154148013#6 757467200#0 757467200#1 757467199 562021794#0 562021794#1 562021794#2 562021794#3 562021794#4 562021794#5 562021794#6 562021794#7 562021794#8 562021794#9 562021794#10 562021792 560361514#0 560361514#1 560361514#2 560361514#3 -359245190 154148014#13 359244613 359244580#0 815232744 818969401 -675107653#5"/>
    </vehicle>
    <vehicle id="veh10_5" depart="25.00">