<?xml version="1.0" encoding="UTF-8"?>

<!-- generated on 06/02/21 14:22:34 by Eclipse SUMO duarouter Version 1.8.0
<configuration xmlns:xsi="http://www.w3.org/2001/XMLSchema-instance" xsi:noNamespaceSchemaLocation="http://sumo.dlr.de/xsd/duarouterConfiguration.xsd">

    <input>
        <net-file value="1/../BSD.net.xml"/>
        <route-files value="1/../0\bsd_000.rou.alt.xml"/>
        <weight-files value="1/..\0\dump_000_900.xml"/>
    </input>

    <output>
        <output-file value="1/bsd_001.rou.xml"/>
        <alternatives-output value="1/bsd_001.rou.alt.xml"/>
        <exit-times value="false"/>
    </output>

    <processing>
        <max-alternatives value="5"/>
        <with-taz value="false"/>
        <weights.expand value="true"/>
        <routing-algorithm value="dijkstra"/>
        <gawron.beta value="0.9"/>
        <gawron.a value="0.5"/>
        <keep-all-routes value="false"/>
        <logit value="false"/>
        <logit.beta value="0.15"/>
        <logit.gamma value="1"/>
    </processing>

    <time>
        <begin value="0"/>
    </time>

    <report>
        <verbose value="false"/>
        <no-warnings value="false"/>
        <ignore-errors value="false"/>
        <no-step-log value="true"/>
    </report>

    <random_number>
        <random value="false"/>
    </random_number>

</configuration>
-->

<routes xmlns:xsi="http://www.w3.org/2001/XMLSchema-instance" xsi:noNamespaceSchemaLocation="http://sumo.dlr.de/xsd/routes_file.xsd">
    <vehicle id="veh0_0" depart="25.00">
        <route edges="-359409608 359409609#4 -697060688 359409594#1 -359409616 359409621#1 757457244#6 479605451 154148013#5 154148013#6 757467200#0 757467200#1 757467199 562021794#0 562021794#1 562021794#2 562021794#3 562021794#4 562021794#5 562021794#6 562021794#7 562021794#8 562021794#9 562021794#10 562021792 560361514#0 560361514#1 560361514#2 560361514#3 560361514#4 560361514#5 560361514#6"/>
    </vehicle>
    <vehicle id="veh0_1" depart="25.00">
        <route edges="560361514#6 560361514#7 359246985 676171779#0 676171779#1 359246990#2 -359246991#1 359246989#0 359246989#1 359246989#2 -359246992#1 359246990#0 359246993#0"/>
    </vehicle>
    <vehicle id="veh0_2" depart="25.00">
        <route edges="359246993#0 359246993#1 819067603 560361514#9 560361514#10"/>
    </vehicle>
    <vehicle id="veh0_3" depart="25.00">
        <route edges="560361514#10 560361514#11 359246983#0 359246983#1 359246983#2 359246983#3 359246983#4 359246983#5 359246983#6 154148014#0 154148014#1 154148014#2"/>
    </vehicle>
    <vehicle id="veh0_4" depart="25.00">
        <route edges="154148014#2 154148014#3 154148014#4 154148014#5 154148014#6 154148014#7 154148014#8 154148014#9 154148014#10 154148014#11 154148014#12 154148014#13 359244613 359244580#0 815232744 818969401 -675107653#5"/>
    </vehicle>
    <vehicle id="veh0_5" depart="25.00">
        <route edges="-675107653#5 -675107653#4 815241572 818969399 359244580#10 359244580#11 729090489 154148014#18 562021790#0"/>
    </vehicle>
    <vehicle id="veh0_6" depart="25.00">
        <route edges="562021790#0 562021790#1 757390879#0 757390879#1 562021795#0 562021795#1 562021795#2 562021795#3 562021795#4 562021795#5 757373596 757373599 757373597#0 757373597#1 757373600#0 757373600#1 757373600#2 757373600#3 757373598 757457244#0 757457244#1 757457244#2 757457244#3 757457244#4 359409621#0 359409616 359409594#2 359409594#0 697060688 697060687#0 -359409608"/>
    </vehicle>
    <vehicle id="veh1_0" depart="25.00">
        <route edges="-359409608 359409609#4 -697060688 359409594#1 -359409616 359409621#1 757457244#6 479605451 154148013#5 154148013#6 757467200#0 757467200#1 757467199 757089161 756081030#0 756081030#1 362347492#0 362347492#1 362347492#2 362347492#3 362347492#4 362347492#5 757091805#0 757091805#1 749662139 757373594 749662140#0 749662140#1 749662140#2 757092064#0 757092064#1 757092063 754594908#0 754594908#1 754594908#2 754594908#3 754594908#4"/>
    </vehicle>
    <vehicle id="veh1_1" depart="25.00">
        <route edges="754594908#4 754594908#5 754594908#6 754594908#7 754594908#8 754594908#9 754594908#10 754594908#11 754594908#12 894641851 -168336017 168336015 230287233#0 230287233#1 230287233#2 230291072"/>
    </vehicle>
    <vehicle id="veh1_2" depart="25.00">
        <route edges="230291072 -230287236#1 -230287236#0 -230287233#0 -682059305#7 168335998 168336017 676448723 894641852 676448722 894641850 894641853 539383768#0"/>
    </vehicle>
    <vehicle id="veh1_3" depart="25.00">
        <route edges="539383768#0 539383768#1 539383768#2"/>
    </vehicle>
    <vehicle id="veh1_4" depart="25.00">
        <route edges="539383768#2 539383768#3 539383768#4 539383762#0 539383762#1 539383762#2 -846964388 539383765#3"/>
    </vehicle>
    <vehicle id="veh1_5" depart="25.00">
        <route edges="539383765#3 539383768#6"/>
    </vehicle>
    <vehicle id="veh1_6" depart="25.00">
        <route edges="539383768#6 539383768#7 539383768#8 539383768#9 539383768#10 539383768#11 539383768#12 539383768#13 539383768#14 563175147#0 563175147#1 563175147#2 563175147#3 563175147#4 563175147#5 563175147#6 -359246245 362347497#6 362347497#7"/>
    </vehicle>
    <vehicle id="veh1_7" depart="25.00">
        <route edges="362347497#7 362347497#8 362347497#9 885403818#0 885403818#1 885403818#2 885403818#3 777631198 777637429 757092064#0 757092064#1 757092063 754594908#0 754594908#1 754594908#2 539383767#0 539383767#1"/>
    </vehicle>
    <vehicle id="veh1_8" depart="25.00">
        <route edges="539383767#1 539383767#2 539383767#3 539383767#4 539383767#5 539383767#6 539383767#7 539383767#8 539383767#9 539383767#10 539383767#11 539383767#12 539383767#13 539383767#14 539383767#15 539383767#16 757373596 757373599 757373597#0 757373597#1 757373600#0 757373600#1 757373600#2 757373600#3 757373598 757457244#0 757457244#1 757457244#2 757457244#3 757457244#4 359409621#0 359409616 359409594#2 359409594#0 697060688 697060687#0 -359409608"/>
    </vehicle>
    <vehicle id="veh2_0" depart="25.00">
        <route edges="-359409608 359409609#4 -697060688 359409594#1 -359409616 359409621#1 757457244#6 479605451 154148013#5 154148013#6 757467200#0 757467200#1 757467199 562021794#0 562021794#1 562021794#2 562021794#3 562021794#4 562021794#5 562021794#6 562021794#7 562021794#8 562021794#9 562021794#10 562021792 560361514#0 560361514#1 560361514#2 560361514#3 560361514#4 -562549606#2 -562549606#1 -562549606#0 188798031#2 55677625 762915601#0 762915601#1 219064996#4 219064996#5 219064996#6 762915596 219064998#0 219064998#1 676492821 676492822"/>
    </vehicle>
    <vehicle id="veh2_1" depart="25.00">
        <route edges="676492822 -219064998#0 762915595 219064996#8 219064996#0 219064996#1 219064996#2 188798028#0 -562549612#1 562549612#1"/>
    </vehicle>
    <vehicle id="veh2_2" depart="25.00">
        <route edges="562549612#1 188798028#1 188798026 188798030#0 188798030#1 -359246996#6 -359246996#5 -359246996#4 -359246996#3 -359246996#2 -359246996#1 -359246996#0 562142025 359246983#2 359247300#0"/>
    </vehicle>
    <vehicle id="veh2_3" depart="25.00">
        <route edges="359247300#0 359247300#1"/>
    </vehicle>
    <vehicle id="veh2_4" depart="25.00">
        <route edges="359247300#1 359247300#2 359247642 -359247644#3 563587627"/>
    </vehicle>
    <vehicle id="veh2_5" depart="25.00">
        <route edges="563587627 588829880 588829879 359247644#2 359247644#3 676171783 359247300#4 359247300#5 359247300#6 359247300#7 359247300#8 359246983#4 359246983#5 359246983#6 154148014#0 154148014#1 154148014#2 154148014#3 154148014#4 154148014#5 154148014#6 154148014#7 154148014#8 154148014#9 154148014#10 154148014#11 -484446266#8"/>
    </vehicle>
    <vehicle id="veh2_6" depart="25.00">
        <route edges="-484446266#8 484446266#8 154148014#12 154148014#13 154148014#14 154148014#15 154148014#16 154148014#17 154148014#18 562021790#0 562021790#1 757390879#0 757390879#1 562021795#0 562021795#1 562021795#2 562021795#3 562021795#4 562021795#5 757373596 757373599 757373597#0 757373597#1 757373600#0 757373600#1 757373600#2 757373600#3 757373598 757457244#0 757457244#1 757457244#2 757457244#3 757457244#4 359409621#0 359409616 359409594#2 359409594#0 697060688 697060687#0 -359409608"/>
    </vehicle>
    <vehicle id="veh3_0" depart="25.00">
        <route edges="-359409608 359409609#4 -697060688 359409594#1 -359409616 359409621#1 757457244#6 757457244#7 359408310 -359408245 470465976#3 470465976#4 470465976#5 359408298#1 359408298#2"/>
    </vehicle>
    <vehicle id="veh3_1" depart="25.00">
        <route edges="359408298#2 -359408298#2 -359408298#1 -359408298#0 757457244#3 479605450 154148013#6"/>
    </vehicle>
    <vehicle id="veh3_2" depart="25.00">
        <route edges="154148013#6 757467200#0 757467200#1 757467199 562021794#0 562021794#1"/>
    </vehicle>
    <vehicle id="veh3_3" depart="25.00">
        <route edges="562021794#1 562021794#2 562021794#3 562021794#4 -359245193 562021795#2 359247813#0 359247813#1 359247813#2"/>
    </vehicle>
    <vehicle id="veh3_4" depart="25.00">
        <route edges="359247813#2 359247813#3 398041365#0 398041365#1 398041365#2 398041365#3 539383767#11 539383767#12 539383767#13 539383767#14 539383767#15 539383767#16 757373596 757373599 757373597#0 757373597#1 757373600#0 757373600#1 757373600#2 757373600#3 756081030#0 756081030#1 362347492#0 398041366#0 398041366#1"/>
    </vehicle>
    <vehicle id="veh3_5" depart="25.00">
        <route edges="398041366#1 398041366#2 539383767#12 539383767#13 539383767#14 539383767#15 539383767#16 757373596 757373599 757373597#0 757373597#1 757373600#0 757373600#1 757373600#2 757373600#3 757373598 757457244#0 757457244#1 757457244#2 757457244#3 757457244#4 359409621#0 359409616 359409594#2 359409594#0 697060688 697060687#0 -359409608"/>
    </vehicle>
</routes>
