<?xml version="1.0" encoding="UTF-8"?>

<!-- generated on 06/23/21 13:13:30 by Eclipse SUMO duarouter Version 1.8.0
<configuration xmlns:xsi="http://www.w3.org/2001/XMLSchema-instance" xsi:noNamespaceSchemaLocation="http://sumo.dlr.de/xsd/duarouterConfiguration.xsd">

    <input>
        <net-file value="2/../BSD.net.xml"/>
        <route-files value="2/../1\bsd_001.rou.alt.xml"/>
        <weight-files value="2/..\1\dump_001_900.xml"/>
    </input>

    <output>
        <output-file value="2/bsd_002.rou.xml"/>
        <alternatives-output value="2/bsd_002.rou.alt.xml"/>
        <exit-times value="false"/>
    </output>

    <processing>
        <max-alternatives value="5"/>
        <with-taz value="false"/>
        <weights.expand value="true"/>
        <routing-algorithm value="dijkstra"/>
        <gawron.beta value="0.9"/>
        <gawron.a value="0.5"/>
        <keep-all-routes value="false"/>
        <logit value="false"/>
        <logit.beta value="0.15"/>
        <logit.gamma value="1"/>
    </processing>

    <time>
        <begin value="0"/>
    </time>

    <report>
        <verbose value="false"/>
        <no-warnings value="false"/>
        <ignore-errors value="false"/>
        <no-step-log value="true"/>
    </report>

    <random_number>
        <random value="false"/>
    </random_number>

</configuration>
-->

<routes xmlns:xsi="http://www.w3.org/2001/XMLSchema-instance" xsi:noNamespaceSchemaLocation="http://sumo.dlr.de/xsd/routes_file.xsd">
    <vehicle id="veh0_0" depart="25.00">
        <route edges="-359409608 359409609#4 -697060688 359409594#1 -359409616 359409621#1 757457244#6 479605451 154148013#5 154148013#6 757467200#0 757467200#1 757467199 562021794#0 562021794#1 562021794#2 562021794#3 562021794#4 562021794#5 562021794#6 562021794#7 562021794#8 562021794#9 562021794#10 562021792 560361514#0 560361514#1 560361514#2 560361514#3 560361514#4 560361514#5 560361514#6 560361514#7 560361514#8 560361514#9 560361514#10 560361514#11 359246983#0 359246983#1 359246983#2 359247300#0 359247300#1 359247300#2 359247642 -359247644#3 563587627"/>
    </vehicle>
    <vehicle id="veh0_1" depart="25.00">
        <route edges="563587627 588829880 588829879 359247644#2 359247644#3 676171783 359247300#4 359247300#5 359247300#6 359247300#7 359247300#8 359246983#4 359246983#5 359246983#6 154148014#0 154148014#1 154148014#2"/>
    </vehicle>
    <vehicle id="veh0_2" depart="25.00">
        <route edges="154148014#2 154148014#3 -359245194 560361514#10"/>
    </vehicle>
    <vehicle id="veh0_3" depart="25.00">
        <route edges="560361514#10 560361514#11 359246983#0 359246983#1 359246983#2 359246983#3 359246983#4 359246983#5 359246983#6 154148014#0 154148014#1 154148014#2 154148014#3 154148014#4 154148014#5 154148014#6 154148014#7 359245192 560361514#7 359246985 676171779#0 676171779#1 359246990#2 -359246991#1 359246989#0 359246989#1 359246989#2 -359246992#1 359246990#0 359246993#0"/>
    </vehicle>
    <vehicle id="veh0_4" depart="25.00">
        <route edges="359246993#0 359246993#1 819067603 560361514#9 359245194 154148014#4 154148014#5 154148014#6 154148014#7 154148014#8 154148014#9 154148014#10 154148014#11 -484446266#8"/>
    </vehicle>
    <vehicle id="veh0_5" depart="25.00">
        <route edges="-484446266#8 484446266#8 154148014#12 154148014#13 154148014#14 154148014#15 154148014#16 154148014#17 154148014#18 562021790#0 562021790#1 757390879#0 757390879#1 562021795#0 562021795#1 562021795#2 562021795#3 562021795#4 562021795#5 757373596 757373599 757373597#0 757373597#1 757373600#0 757373600#1 757373600#2 757373600#3 757373598 757457244#0 757457244#1 757457244#2 757457244#3 757457244#4 359409621#0 359409616 359409594#2 359409594#0 697060688 697060687#0 -359409608"/>
    </vehicle>
    <vehicle id="veh1_0" depart="25.00">
        <route edges="-359409608 359409609#4 -697060688 359409594#1 -359409616 359409621#1 757457244#6 479605451 154148013#5 154148013#6 757467200#0 757467200#1 775190282#0 775190282#1 775190281 757373595#0 757373595#1 757373595#2 775190280 359245321 359245322#0 359245322#1 359245322#2 359245322#3 359245322#4 359245322#5 359245322#6 359245322#7 359245322#8 359245322#9 359245322#10 359245322#11 359245322#12 359245322#13 359245322#14 359245322#15 359245322#16 359245322#17 359245322#18 359245322#19 359245322#20 359245322#21 359245322#22 562631149 766156748#0 766156748#1 766156747 766156746 766156745#0 766156745#1 766156745#2 766156745#3 766156745#4 46560873#0 46560873#1 46560873#2 46560873#3 46560873#4 46560873#5 717660813#0 717660813#1 717660813#2 717660813#3 717660813#4 717660813#5 717660813#6 717660813#7 717660813#8 717660813#9 717660813#10 717660813#11 562356519 894402596 893429032 562356520#0 562356520#1 562356520#2 562356520#3 562356520#4 562356520#5 562356520#6 562356520#7 562356520#8 562356520#9 362987772 562356522#0 781684931#0"/>
    </vehicle>
    <vehicle id="veh1_1" depart="25.00">
        <route edges="781684931#0 -56457086#3 362985244#6 362985244#7 562356522#2 562356522#3 562356522#4 562356522#5 562356522#6 562356522#7 562356521 779447280#0 779447280#1 779447279 756370396#0 756370396#1 756370396#2 756370396#3 756370396#4 756370396#5 756370396#6 756370396#7 756370396#8 756370395#0 756370395#1 756370395#2 756370394 682796715 754707684#0 754707684#1 754707683 542186394#0 542186394#1 542186394#2 542186394#3 542186394#4 542186394#5 542186394#6 542186394#7 754707681#0 754707681#1 754707682#0 754707679#2 363002237#0 363002237#1 363002237#2 363002237#3 363002237#4"/>
    </vehicle>
    <vehicle id="veh1_2" depart="25.00">
        <route edges="363002237#4 363002237#5 363002237#6 363002237#7 756043919#2 756043919#3 756050844#0 756050844#1 739766913#0 739766913#1 682641313 756081033#0 756081033#1 756081033#2 766136205#0 766136205#1 766136205#2 766136205#3 396051497#0 396051497#1 588529254#1 588529254#2 588529254#3 814835178 396051491#2 396051491#3"/>
    </vehicle>
    <vehicle id="veh1_3" depart="25.00">
        <route edges="396051491#3 396051491#4 396051491#5 766136204 766136203 766136202 766136201 766136200"/>
    </vehicle>
    <vehicle id="veh1_4" depart="25.00">
        <route edges="766136200 766136199#0 766136199#1 766136198 264106336 264106329 776405490#0 776405490#1 756081032 758136380 749662141 757088117#0 757088117#1 757089161 757373598 757457244#0 757457244#1 757457244#2 757457244#3 757457244#4 359409621#0 359409616 359409594#2 359409594#0 697060688 697060687#0 -359409608"/>
    </vehicle>
    <vehicle id="veh2_0" depart="25.00">
        <route edges="-359409608 359409609#4 -697060688 359409594#1 -359409616 359409621#1 757457244#6 479605451 154148013#5 154148013#6 757467200#0 757467200#1 757467199 562021794#0 562021794#1 562021794#2 562021794#3 562021794#4 562021794#5 562021794#6 562021794#7 562021794#8 562021794#9 562021794#10 562021792 560361514#0 560361514#1 560361514#2 560361514#3 560361514#4 -562549606#2 -562549606#1 -562549606#0 188798031#2 55677625 762915601#0 -562549612#2 -562549612#1 562549612#1"/>
    </vehicle>
    <vehicle id="veh2_1" depart="25.00">
        <route edges="562549612#1 562549612#2 762915601#1 219064996#4 219064996#5 219064996#6 762915596 219064998#0 219064998#1 676492821 676492822"/>
    </vehicle>
    <vehicle id="veh2_2" depart="25.00">
        <route edges="676492822 -219064998#0 762915595 219064996#8 219064996#0 219064996#1 219064996#2 188798028#0 188798028#1 188798026 188798030#0 188798030#1 -359246996#6 -359246996#5 -359246996#4 -359246996#3 -359246996#2 -359246996#1 -359246996#0 562142025 359246983#2 359247300#0"/>
    </vehicle>
    <vehicle id="veh2_3" depart="25.00">
        <route edges="359247300#0 359247300#1"/>
    </vehicle>
    <vehicle id="veh2_4" depart="25.00">
        <route edges="359247300#1 -359247291#0 359247300#5 359247300#6 359247300#7 359247300#8 359246983#4 359247808#0 359247808#1 359247808#2 359247808#3 359247808#4 359247808#5 359247808#6 359247808#7 822180069#0 894641854#0 894641854#1 894641854#2 894641854#3 894641853 539383768#0 539383768#1 539383768#2"/>
    </vehicle>
    <vehicle id="veh2_5" depart="25.00">
        <route edges="539383768#2 539383768#3 539383768#4 539383768#5 539383768#6 539383768#7 539383768#8 539383768#9 539383768#10 539383768#11 539383768#12 539383768#13 539383768#14 539383768#15 777631198 563175146#0 563175146#1 771544256#0 771544256#1 771544256#2 757457244#0 757457244#1 757457244#2 757457244#3 757457244#4 359409621#0 359409616 359409594#2 359409594#0 697060688 697060687#0 -359409608"/>
    </vehicle>
    <vehicle id="veh3_0" depart="25.00">
        <route edges="-359409608 359409609#4 -697060688 359409594#1 -359409616 359409621#1 757457244#6 479605451 154148013#5 154148013#6 757467200#0 757467200#1 757467199 757089161 756081030#0 756081030#1 362347492#0 362347492#1 362347492#2 362347492#3 362347492#4 362347492#5 757091805#0 757091805#1 749662139 757373594 757092065 757092063 754594908#0 754594908#1 754594908#2 754594908#3 754594908#4 754594908#5 754594908#6 754594908#7 754594908#8 754594908#9 754594908#10 754594908#11 754594908#12 894425583 894641852 676448722 894641850 894641853 539383768#0"/>
    </vehicle>
    <vehicle id="veh3_1" depart="25.00">
        <route edges="539383768#0 -674365070 -674365071 -757096026 754594908#12 894641851 -168336017 168336015 230287233#0 230287233#1 230287233#2 230291072"/>
    </vehicle>
    <vehicle id="veh3_2" depart="25.00">
        <route edges="230291072 -230287236#1 -230287236#0 -230287233#0 -682059305#7 -682059305#6 -682059305#5 -682059305#4 -682059305#3 -682059305#2 -682059305#1 -168336006#2 -168336006#1 -168336006#0 682199980 154148014#7 154148014#8 154148014#9 359245191 560361514#6"/>
    </vehicle>
    <vehicle id="veh3_3" depart="25.00">
        <route edges="560361514#6 -359245192 154148014#8 154148014#9 154148014#10 154148014#11 154148014#12 154148014#13 154148014#14 154148014#15 154148014#16 154148014#17 154148014#18 562021790#0"/>
    </vehicle>
    <vehicle id="veh3_4" depart="25.00">
        <route edges="562021790#0 562021790#1 757390879#0 757390879#1 562021795#0 562021795#1 562021795#2 562021795#3 562021795#4 562021795#5 757373596 757373599 757373597#0 757373597#1 757373600#0 757373600#1 757373600#2 757373600#3 757373598 757457244#0 757457244#1 757457244#2 359408298#0 359408298#1 359408298#2"/>
    </vehicle>
    <vehicle id="veh3_5" depart="25.00">
        <route edges="359408298#2 -359408298#2 -359408298#1 -359408298#0 757457244#3 757457244#4 359409621#0 359409616 359409594#2 359409594#0 697060688 697060687#0 -359409608"/>
    </vehicle>
    <vehicle id="veh4_0" depart="25.00">
        <route edges="-359409608 359409609#4 -697060688 359409594#1 -359409616 359409621#1 757457244#6 479605451 154148013#5 154148013#6 757467200#0 757467200#1 757467199 757089161 756081030#0 756081030#1 362347492#0 362347492#1 362347492#2 362347492#3 362347492#4 362347492#5 757091805#0 757091805#1 749662139 757373594 757092065 757092063 754594908#0 754594908#1 754594908#2 754594908#3 754594908#4 754594908#5 754594908#6 694954580 539383762#0 539383762#1 539383762#2 539383762#3 539383762#4 539383762#5 539383762#6 539383762#7"/>
    </vehicle>
    <vehicle id="veh4_1" depart="25.00">
        <route edges="539383762#7 539383762#8 539383762#9 539383768#9 539383768#10 539383768#11 539383768#12 539383768#13 539383768#14 563175147#0 563175147#1 563175147#2 563175147#3 563175147#4 563175147#5 563175147#6"/>
    </vehicle>
    <vehicle id="veh4_2" depart="25.00">
        <route edges="563175147#6 -359246245 362347497#6 362347497#7"/>
    </vehicle>
    <vehicle id="veh4_3" depart="25.00">
        <route edges="362347497#7 362347497#8 362347497#9 885403818#0 885403818#1 885403818#2 885403818#3 777631198 777637429 757092064#0 757092064#1 757092063 754594908#0 754594908#1 754594908#2 539383767#0 539383767#1"/>
    </vehicle>
    <vehicle id="veh4_4" depart="25.00">
        <route edges="539383767#1 539383767#2 539383767#3 539383767#4 539383767#5 539383767#6 539383767#7 398041367#3 398041367#4 398041367#5 398041367#6 398041367#7 562430406#5 562430406#6 562430406#7 562430406#8"/>
    </vehicle>
    <vehicle id="veh4_5" depart="25.00">
        <route edges="562430406#8 562430406#9 562021795#4 562021795#5 757373596 757373599 757373597#0 757373597#1 757373600#0 757373600#1 757373600#2 757373600#3 757373598 757457244#0 757457244#1 757457244#2 757457244#3 757457244#4 359409621#0 359409616 359409594#2 359409594#0 697060688 697060687#0 -359409608"/>
    </vehicle>
    <vehicle id="veh5_0" depart="25.00">
        <route edges="-359409608 359409609#4 -697060688 359409594#1 -359409616 359409621#1 757457244#6 757457244#7 757457244#8 757457244#9 778736460 757457243 588516941#1 588516941#2 588516941#3 588516941#4 588516941#5 588516941#6 588516941#7 588516941#8 588516941#9 588516941#10 588516941#11 588516941#12 588516941#13 588516941#14 588516941#15 588516941#16 588516941#17 588516941#18 588516941#19 758430839 757430742 757430741 757436793 757436792 757436791#0 757436791#1 757436790 757436789 757441791 219134653#0 219134653#1 219134653#2 219134653#3 219134653#4 219134653#5 219134653#6 757450364#0 757450364#1 757450363 757450362#0 757450362#1 757450362#2 757366277 479199742#1"/>
    </vehicle>
    <vehicle id="veh5_1" depart="25.00">
        <route edges="479199742#1 479199742#2 479199742#3 479199742#4 479199742#5 479199742#6 479199742#7 843504981 -843504985#21 -843504985#20 -843504985#19 -843504985#18 -843504985#17 -843504985#16 -843504985#15 -843504985#14 -843504985#13 -843504985#12 -843504985#11 -843504985#10 -843504985#9 -843504985#8 -843504985#7 -843504985#6 -843504985#5 -843504985#4 -843504985#3 -843504985#2 -843504985#1 -843504985#0 -562430375 -562430376#9 -562430376#8 -562430376#7 -562430376#6 -562430376#5 -562430376#4 -562430376#3 -562430376#2 -562430376#1 -562430376#0 749988360#18 749988360#19 749988360#20 749988360#21 757430744 749988359 757430745 758430840 749313694#0 749313694#1 757411376 749313861#0 749313861#1 749313861#2 749313861#3 749313861#4 749313860#0 749313860#1 754594909#0 754594909#1 754594909#2 754594909#3 749313693#0 749313693#1 749313693#2 749313693#3 749313693#4 749313693#5 749313693#6 749313693#7 749313693#8 749313693#9 749313693#10 749313693#11 754598165#0 754598165#1 754598165#2 777637429 757092064#0 757092064#1 757092063 754594908#0 754594908#1 754594908#2 754594908#3 754594908#4 754594908#5 754594908#6 694954580 539383762#0 539383762#1 539383762#2 -846964388 539383765#3"/>
    </vehicle>
    <vehicle id="veh5_2" depart="25.00">
        <route edges="539383765#3 539383768#6"/>
    </vehicle>
    <vehicle id="veh5_3" depart="25.00">
        <route edges="539383768#6 539383768#7 539383768#8 539383768#9 539383768#10 539383768#11 539383768#12 539383768#13 539383768#14 539383768#15 777631198 563175146#0 563175146#1 771544256#0 757467201 757457244#2 757457244#3 479605450 154148013#6"/>
    </vehicle>
    <vehicle id="veh5_4" depart="25.00">
        <route edges="154148013#6 757467200#0 757467200#1 757467199 757089161 757373598 757457244#0 757457244#1 757457244#2 757457244#3 757457244#4 359409621#0 359409616 359409594#2 359409594#0 697060688 697060687#0 -359409608"/>
    </vehicle>
    <vehicle id="veh6_0" depart="25.00">
        <route edges="-359409608 359409609#4 -697060688 359409594#1 -359409616 359409621#1 757457244#6 479605451 154148013#5 154148013#6 757467200#0 757467200#1 757467199 757089161 756081030#0 756081030#1 362347492#0 362347492#1 362347492#2 362347492#3 362347492#4 362347492#5 757091805#0 757091805#1 749662139 757373594 757092065 757092063 754594908#0 754594908#1 754594908#2 754594908#3 754594908#4"/>
    </vehicle>
    <vehicle id="veh6_1" depart="25.00">
        <route edges="754594908#4 754594908#5 562430406#0 562430406#1 562430406#2 562430406#3 562430406#4 562430406#5 562430406#6 562430406#7 562430406#8"/>
    </vehicle>
    <vehicle id="veh6_2" depart="25.00">
        <route edges="562430406#8 562430406#9 562021795#4 562021795#5 757373596 757373599 757373597#0 757373597#1 757373600#0 757373600#1 757373600#2 757373600#3 756081030#0 756081030#1 362347492#0 398041366#0 398041366#1"/>
    </vehicle>
    <vehicle id="veh6_3" depart="25.00">
        <route edges="398041366#1 398041366#2 539383767#12 539383767#13 539383767#14 539383767#15 539383767#16 757373596 757373599 757373597#0 757373597#1 757373600#0 757373600#1 757373600#2 757373600#3 757373598 771544256#3 757467199 562021794#0 562021794#1 562021794#2 562021794#3 562021794#4 -359245193 562021795#2 359247813#0 359247813#1 359247813#2"/>
    </vehicle>
    <vehicle id="veh6_4" depart="25.00">
        <route edges="359247813#2 359247813#3 398041365#0 398041365#1 398041365#2 398041365#3 539383767#11 539383767#12 539383767#13 539383767#14 539383767#15 539383767#16 757373596 757373599 757373597#0 757373597#1 757373600#0 757373600#1 757373600#2 757373600#3 757373598 757457244#0 757457244#1 757457244#2 757457244#3 757457244#4 359409621#0 359409616 359409594#2 359409594#0 697060688 697060687#0 -359409608"/>
    </vehicle>
    <vehicle id="veh7_0" depart="25.00">
        <route edges="-359409608 359409609#4 -697060688 359409594#1 -359409616 359409621#1 757457244#6 479605451 154148013#5 154148013#6 757467200#0 757467200#1 757467199 562021794#0 562021794#1 562021794#2 562021794#3 562021794#4 562021794#5 562021794#6 562021794#7 562021794#8 562021794#9 562021794#10 562021792 560361514#0 560361514#1 560361514#2 560361514#3 -359245190 154148014#13 359244613 359244580#0 815232744 818969401 -675107653#5"/>
    </vehicle>
    <vehicle id="veh7_1" depart="25.00">
        <route edges="-675107653#5 -675107653#4 815241572 818969399 359244580#10 359244580#11 729090489 154148014#18 562021790#0 562021790#1 757390879#0 757390879#1 562021795#0 562021795#1 562021795#2 562021795#3 562021795#4 562021795#5 757373596 757373599 757373597#0 757373597#1 757373600#0 757373600#1 757373600#2 757373600#3 757373598 771544256#3 757467199 562021794#0 562021794#1"/>
    </vehicle>
    <vehicle id="veh7_2" depart="25.00">
        <route edges="562021794#1 562021794#2 562021794#3 562021794#4 -359245193 562021795#2 562021795#3 562021795#4 562021795#5 757373596 757373599 757373597#0 757373597#1 757373600#0 757373600#1 757373600#2 757373600#3 757373598 757457244#0 757457244#1 757457244#2 359408298#0 359408298#1 359408298#2 359408298#3 359408298#4 359408298#5 359408298#6 -359408277#0"/>
    </vehicle>
    <vehicle id="veh7_3" depart="25.00">
        <route edges="-359408277#0 749313693#4 749313693#5 749313693#6 749313693#7 749313693#8 749313693#9 749313693#10 749313693#11 754598165#0 754598165#1 754598165#2 563175146#0 563175146#1 771544256#0 771544256#1 771544256#2 757457244#0 757457244#1 757457244#2 757457244#3 757457244#4 359409621#0 359409616 359409594#2 359409594#0 697060688 697060687#0 -359409608"/>
    </vehicle>
</routes>
