<trips>
    <trip id="1625993_25" depart="25" from="-675107653#5" to="230291072"/>
    <trip id="1542480_35" depart="35" from="230291072"   to="539383767#1"/>
    <trip id="1544282_35" depart="35" from="539383767#1" to="539383765#3"/>
    <trip id="1565407_35" depart="35" from="539383765#3" to="560361514#10"/>
    <trip id="1620115_45" depart="45" from="560361514#10" to="560361514#6"/>
    <trip id="1647560_45" depart="45" from="560361514#6" to="562021794#1"/>
    <trip id="3761248_45" depart="45" from="562021794#1" to="-675107653#5"/>
</trips>