<?xml version="1.0" encoding="UTF-8"?>
<!-- generated on 2021-03-06 11:49:59.950530 by $Id$ v1_8_0+0044-4820708f3d
  options: -n BSD.net.xml -r BSD-1000.rou.xml -e 1000 -l
-->
<routes xmlns:xsi="http://www.w3.org/2001/XMLSchema-instance" xsi:noNamespaceSchemaLocation="http://sumo.dlr.de/xsd/routes_file.xsd">
    <trip id="0" depart="0.00" from="398041366#2" to="-358237485#7"/>
    <trip id="1" depart="1.00" from="-562929276#1" to="-530635269#4"/>
    <trip id="2" depart="2.00" from="542186394#7" to="480650596#0"/>
    <trip id="3" depart="3.00" from="698816997" to="-362999603"/>
    <trip id="4" depart="4.00" from="-810386274" to="-359244600#1"/>
    <trip id="5" depart="5.00" from="-481287060" to="359409618#0"/>
    <trip id="6" depart="6.00" from="-357857676" to="-480650585#1"/>
    <trip id="7" depart="7.00" from="403676104#0" to="363361569"/>
    <trip id="8" depart="8.00" from="-482732135#1" to="363788720#0"/>
    <trip id="9" depart="9.00" from="56457086#1" to="-225079367"/>
    <trip id="10" depart="10.00" from="564196727#2" to="52520671#6"/>
    <trip id="11" depart="11.00" from="-589105280" to="-402763610#4"/>
    <trip id="12" depart="12.00" from="766136198" to="-694951193#2"/>
    <trip id="13" depart="13.00" from="-362999600" to="-363362958#2"/>
    <trip id="14" depart="14.00" from="588529278#0" to="388271176#24"/>
    <trip id="15" depart="15.00" from="564196746#0" to="562356520#6"/>
    <trip id="16" depart="16.00" from="359409625#0" to="792512810"/>
    <trip id="17" depart="17.00" from="-713878127" to="363369308#1"/>
    <trip id="18" depart="18.00" from="571585514#7" to="402763610#0"/>
    <trip id="19" depart="19.00" from="594398301" to="363570099#5"/>
    <trip id="20" depart="20.00" from="480650590#2" to="-359405346#0"/>
    <trip id="21" depart="21.00" from="-52520681#6" to="-56463112#0"/>
    <trip id="22" depart="22.00" from="-362985245#4" to="-561454860#1"/>
    <trip id="23" depart="23.00" from="-363362939#2" to="-564196751#1"/>
    <trip id="24" depart="24.00" from="396049395" to="-740574649#2"/>
    <trip id="25" depart="25.00" from="-697060690#2" to="-480701094"/>
    <trip id="26" depart="26.00" from="-562929186" to="756370396#3"/>
    <trip id="27" depart="27.00" from="402763658#1" to="396051490#4"/>
    <trip id="28" depart="28.00" from="-429939485#4" to="562356520#0"/>
    <trip id="29" depart="29.00" from="-402763664#4" to="-77778100#7"/>
    <trip id="30" depart="30.00" from="842636804" to="459201808#0"/>
    <trip id="31" depart="31.00" from="362994732" to="480701078"/>
    <trip id="32" depart="32.00" from="587915375" to="563587559"/>
    <trip id="33" depart="33.00" from="-530635268#1" to="-359244609#0"/>
    <trip id="34" depart="34.00" from="-569270538#7" to="-563587570#1"/>
    <trip id="35" depart="35.00" from="-480650624#6" to="757457244#6"/>
    <trip id="36" depart="36.00" from="674577832" to="-591465928"/>
    <trip id="37" depart="37.00" from="429410280#2" to="-823424777"/>
    <trip id="38" depart="38.00" from="739698757#1" to="359245322#4"/>
    <trip id="39" depart="39.00" from="-562647904#1" to="-562631110"/>
    <trip id="40" depart="40.00" from="362999580" to="-562929285"/>
    <trip id="41" depart="41.00" from="363373869#2" to="729152088#0"/>
    <trip id="42" depart="42.00" from="-752161399" to="-52337090#1"/>
    <trip id="43" depart="43.00" from="897757433#1" to="359441772#1"/>
    <trip id="44" depart="44.00" from="-362999587#7" to="-359405355#0"/>
    <trip id="45" depart="45.00" from="-363373897#1" to="429410286#2"/>
    <trip id="46" depart="46.00" from="563175121" to="225078539#0"/>
    <trip id="47" depart="47.00" from="-359408281#1" to="-77779412"/>
    <trip id="48" depart="48.00" from="897756047#4" to="362995556#0"/>
    <trip id="49" depart="49.00" from="780800859" to="595286798#1"/>
    <trip id="50" depart="50.00" from="-225080053" to="560361515#1"/>
    <trip id="51" depart="51.00" from="479025474#1" to="363002238#2"/>
    <trip id="52" depart="52.00" from="-562929184" to="459201809#1"/>
    <trip id="53" depart="53.00" from="-363373923" to="233703209#0"/>
    <trip id="54" depart="54.00" from="225078539#2" to="766136205#1"/>
    <trip id="55" depart="55.00" from="674424710" to="-562929289"/>
    <trip id="56" depart="56.00" from="359247808#3" to="-479025450#0"/>
    <trip id="57" depart="57.00" from="739465643#0" to="675107653#1"/>
    <trip id="58" depart="58.00" from="-56457086#5" to="458252075#4"/>
    <trip id="59" depart="59.00" from="363573312#0" to="-398065710#1"/>
    <trip id="60" depart="60.00" from="562430376#0" to="363359027"/>
    <trip id="61" depart="61.00" from="562929186" to="362999573#0"/>
    <trip id="62" depart="62.00" from="-167789679#17" to="-595286798#0"/>
    <trip id="63" depart="63.00" from="-264106317#4" to="754594908#9"/>
    <trip id="64" depart="64.00" from="675987623" to="588516938#10"/>
    <trip id="65" depart="65.00" from="-56463095#0" to="-359408279#2"/>
    <trip id="66" depart="66.00" from="675107653#4" to="762375367"/>
    <trip id="67" depart="67.00" from="-362995551#2" to="359405364#4"/>
    <trip id="68" depart="68.00" from="-359409603" to="562929241#2"/>
    <trip id="69" depart="69.00" from="562430405#8" to="-363643939#0"/>
    <trip id="70" depart="70.00" from="357811925#7" to="363369293#1"/>
    <trip id="71" depart="71.00" from="-562647905#1" to="676492821"/>
    <trip id="72" depart="72.00" from="-812543679" to="-482726352#0"/>
    <trip id="73" depart="73.00" from="359441774#0" to="562356522#0"/>
    <trip id="74" depart="74.00" from="-480650557" to="-588829872#3"/>
    <trip id="75" depart="75.00" from="897756046#4" to="479025461#1"/>
    <trip id="76" depart="76.00" from="-843760747#0" to="362979844#2"/>
    <trip id="77" depart="77.00" from="-363387113" to="-538162280#0"/>
    <trip id="78" depart="78.00" from="-588829924" to="363788693"/>
    <trip id="79" depart="79.00" from="-530727619#9" to="-52337090#4"/>
    <trip id="80" depart="80.00" from="-359409617#4" to="439973742#4"/>
    <trip id="81" depart="81.00" from="-530635250#2" to="739462179#0"/>
    <trip id="82" depart="82.00" from="591697088" to="-359898172#0"/>
    <trip id="83" depart="83.00" from="-552423757#1" to="479605474#1"/>
    <trip id="84" depart="84.00" from="-480701073#9" to="-363644991"/>
    <trip id="85" depart="85.00" from="754693423#0" to="363470446#2"/>
    <trip id="86" depart="86.00" from="356342315#0" to="564196290#2"/>
    <trip id="87" depart="87.00" from="564196747#1" to="-479605444#0"/>
    <trip id="88" depart="88.00" from="-363359043" to="233703187#1"/>
    <trip id="89" depart="89.00" from="-812741911#2" to="359247307#2"/>
    <trip id="90" depart="90.00" from="530635250#1" to="480650570#7"/>
    <trip id="91" depart="91.00" from="824101397#0" to="-363369306#1"/>
    <trip id="92" depart="92.00" from="-760609820#5" to="-696812211#3"/>
    <trip id="93" depart="93.00" from="594398301" to="-562647779#0"/>
    <trip id="94" depart="94.00" from="-479025486#1" to="358237493#1"/>
    <trip id="95" depart="95.00" from="-810379471" to="-564196755#1"/>
    <trip id="96" depart="96.00" from="-562430388" to="747965023"/>
    <trip id="97" depart="97.00" from="154148014#9" to="595286798#10"/>
    <trip id="98" depart="98.00" from="362985245#2" to="-359408232#2"/>
    <trip id="99" depart="99.00" from="897757435#1" to="588552943#3"/>
    <trip id="100" depart="100.00" from="77779960" to="749988360#21"/>
    <trip id="101" depart="101.00" from="588552978#1" to="-439973728#4"/>
    <trip id="102" depart="102.00" from="359244602#1" to="-482732136#5"/>
    <trip id="103" depart="103.00" from="-757441788#0" to="-359408288#1"/>
    <trip id="104" depart="104.00" from="-720099431#1" to="833492354#2"/>
    <trip id="105" depart="105.00" from="-562647906#1" to="563587646#2"/>
    <trip id="106" depart="106.00" from="225079827" to="225079365#2"/>
    <trip id="107" depart="107.00" from="766136199#1" to="897756047#1"/>
    <trip id="108" depart="108.00" from="362993406#0" to="55678885#7"/>
    <trip id="109" depart="109.00" from="-392657886#0" to="-569270540#2"/>
    <trip id="110" depart="110.00" from="77779581#9" to="363573312#1"/>
    <trip id="111" depart="111.00" from="360739110#0" to="562631135"/>
    <trip id="112" depart="112.00" from="-359408236#0" to="363643941"/>
    <trip id="113" depart="113.00" from="359247810#4" to="591697089#1"/>
    <trip id="114" depart="114.00" from="-396051490#0" to="77778245"/>
    <trip id="115" depart="115.00" from="-362985245#5" to="-479085192#1"/>
    <trip id="116" depart="116.00" from="363387077" to="480650584#2"/>
    <trip id="117" depart="117.00" from="-552422309#1" to="-363569533#0"/>
    <trip id="118" depart="118.00" from="697060687#0" to="-562631078"/>
    <trip id="119" depart="119.00" from="363387074#0" to="402763646#2"/>
    <trip id="120" depart="120.00" from="-781717821" to="363643939#4"/>
    <trip id="121" depart="121.00" from="359408245" to="756050840#6"/>
    <trip id="122" depart="122.00" from="-480650579#0" to="554170826#13"/>
    <trip id="123" depart="123.00" from="-552423760" to="-824076588"/>
    <trip id="124" depart="124.00" from="470465976#0" to="-573346392#0"/>
    <trip id="125" depart="125.00" from="-569270540#0" to="562647882#1"/>
    <trip id="126" depart="126.00" from="-359409626#3" to="359245322#1"/>
    <trip id="127" depart="127.00" from="897757434#1" to="897756048#1"/>
    <trip id="128" depart="128.00" from="-359441771#2" to="-482732127"/>
    <trip id="129" depart="129.00" from="-562647906#1" to="756043923"/>
    <trip id="130" depart="130.00" from="682124539#2" to="696669023#4"/>
    <trip id="131" depart="131.00" from="-697060686#0" to="-403676104#0"/>
    <trip id="132" depart="132.00" from="573374678#0" to="539383765#1"/>
    <trip id="133" depart="133.00" from="363639977#1" to="835798705"/>
    <trip id="134" depart="134.00" from="429410262#0" to="-225080055"/>
    <trip id="135" depart="135.00" from="56462694#5" to="-571605438#3"/>
    <trip id="136" depart="136.00" from="441146332#3" to="757430741"/>
    <trip id="137" depart="137.00" from="-363643939#4" to="-363387108"/>
    <trip id="138" depart="138.00" from="-363369321" to="363369319#0"/>
    <trip id="139" depart="139.00" from="-562929257#2" to="388271178#1"/>
    <trip id="140" depart="140.00" from="482732120#3" to="-480650622#4"/>
    <trip id="141" depart="141.00" from="392657307#1" to="-562929299#13"/>
    <trip id="142" depart="142.00" from="359245322#3" to="735373803#3"/>
    <trip id="143" depart="143.00" from="588529254#0" to="-363361293#2"/>
    <trip id="144" depart="144.00" from="-812741911#2" to="-564196743#4"/>
    <trip id="145" depart="145.00" from="-168328152#1" to="563175121"/>
    <trip id="146" depart="146.00" from="396049403#0" to="-562929280#3"/>
    <trip id="147" depart="147.00" from="552423749" to="363369307#1"/>
    <trip id="148" depart="148.00" from="-815396402#1" to="-230287239#1"/>
    <trip id="149" depart="149.00" from="-359898163#2" to="697060686#1"/>
    <trip id="150" depart="150.00" from="729152088#2" to="363362939#0"/>
    <trip id="151" depart="151.00" from="573843235" to="363639981#2"/>
    <trip id="152" depart="152.00" from="-369195296#0" to="-363639979"/>
    <trip id="153" depart="153.00" from="-56463135#3" to="729152088#5"/>
    <trip id="154" depart="154.00" from="563587568#1" to="595286798#1"/>
    <trip id="155" depart="155.00" from="707200284#5" to="-480701096#5"/>
    <trip id="156" depart="156.00" from="-562430383#0" to="-363373894#3"/>
    <trip id="157" depart="157.00" from="562929218#0" to="697063414#0"/>
    <trip id="158" depart="158.00" from="-773773535" to="402763686#1"/>
    <trip id="159" depart="159.00" from="-392657307#2" to="754685438#2"/>
    <trip id="160" depart="160.00" from="594478220" to="812741911#2"/>
    <trip id="161" depart="161.00" from="56457086#8" to="697049266"/>
    <trip id="162" depart="162.00" from="-357811927#4" to="562430376#0"/>
    <trip id="163" depart="163.00" from="-588606547#1" to="754693423#0"/>
    <trip id="164" depart="164.00" from="563587646#2" to="60728745#8"/>
    <trip id="165" depart="165.00" from="56457086#8" to="-563587547"/>
    <trip id="166" depart="166.00" from="562929281#0" to="-363377193#0"/>
    <trip id="167" depart="167.00" from="60728745#4" to="594481036"/>
    <trip id="168" depart="168.00" from="-484446266#7" to="573346340#2"/>
    <trip id="169" depart="169.00" from="230291075#0" to="-583663582#2"/>
    <trip id="170" depart="170.00" from="563587547" to="-552421350#0"/>
    <trip id="171" depart="171.00" from="-356342320#0" to="-479895374#1"/>
    <trip id="172" depart="172.00" from="-584602604#0" to="60728752#5"/>
    <trip id="173" depart="173.00" from="77779203" to="-56457046"/>
    <trip id="174" depart="174.00" from="398065711#0" to="-838576265"/>
    <trip id="175" depart="175.00" from="818677221" to="363002237#2"/>
    <trip id="176" depart="176.00" from="756050840#6" to="-363387106"/>
    <trip id="177" depart="177.00" from="778755168" to="-479025450#0"/>
    <trip id="178" depart="178.00" from="77777204#4" to="-563175120#1"/>
    <trip id="179" depart="179.00" from="-363373876#2" to="233703206"/>
    <trip id="180" depart="180.00" from="52520681#8" to="-589105296#3"/>
    <trip id="181" depart="181.00" from="363569556#0" to="359898163#2"/>
    <trip id="182" depart="182.00" from="-739701179#5" to="363570097#2"/>
    <trip id="183" depart="183.00" from="-562549612#1" to="552410305"/>
    <trip id="184" depart="184.00" from="-167789679#24" to="749313861#4"/>
    <trip id="185" depart="185.00" from="359441668#2" to="560361514#1"/>
    <trip id="186" depart="186.00" from="552423753#0" to="480432025"/>
    <trip id="187" depart="187.00" from="-694951193#2" to="-359898164#2"/>
    <trip id="188" depart="188.00" from="441146332#9" to="-674589858"/>
    <trip id="189" depart="189.00" from="-569270494#0" to="588885873"/>
    <trip id="190" depart="190.00" from="484446243#2" to="-573346392#1"/>
    <trip id="191" depart="191.00" from="-56463214#3" to="167789679#11"/>
    <trip id="192" depart="192.00" from="-760609820#1" to="-569270529"/>
    <trip id="193" depart="193.00" from="-363570097#2" to="22232036#1"/>
    <trip id="194" depart="194.00" from="756081032" to="480650599"/>
    <trip id="195" depart="195.00" from="729152080" to="398191440#6"/>
    <trip id="196" depart="196.00" from="-56460682#5" to="363362961#1"/>
    <trip id="197" depart="197.00" from="-167789679#16" to="-56462694#3"/>
    <trip id="198" depart="198.00" from="-823381589#1" to="363595413#0"/>
    <trip id="199" depart="199.00" from="429410275#3" to="359247298"/>
    <trip id="200" depart="200.00" from="154148014#16" to="-482732135#2"/>
    <trip id="201" depart="201.00" from="356342316#1" to="729152094#3"/>
    <trip id="202" depart="202.00" from="563587566#2" to="-441146328#5"/>
    <trip id="203" depart="203.00" from="-362994728#2" to="362926671"/>
    <trip id="204" depart="204.00" from="388271176#16" to="-682385867#1"/>
    <trip id="205" depart="205.00" from="56463029#2" to="562647828"/>
    <trip id="206" depart="206.00" from="470465976#5" to="-538162280#0"/>
    <trip id="207" depart="207.00" from="-479605455" to="-358237485#27"/>
    <trip id="208" depart="208.00" from="-562430294" to="359247813#9"/>
    <trip id="209" depart="209.00" from="588553011#1" to="-362979854#6"/>
    <trip id="210" depart="210.00" from="-77781070" to="429939574"/>
    <trip id="211" depart="211.00" from="-479199686" to="52337090#16"/>
    <trip id="212" depart="212.00" from="359247293#3" to="-562549606#1"/>
    <trip id="213" depart="213.00" from="429410289" to="-223060279#7"/>
    <trip id="214" depart="214.00" from="560361515#9" to="563175088#2"/>
    <trip id="215" depart="215.00" from="-363369319#1" to="225080561#4"/>
    <trip id="216" depart="216.00" from="-441146328#4" to="77777204#0"/>
    <trip id="217" depart="217.00" from="359408227#7" to="-359408232#1"/>
    <trip id="218" depart="218.00" from="-562430382" to="588885881#1"/>
    <trip id="219" depart="219.00" from="226692277" to="56463029#11"/>
    <trip id="220" depart="220.00" from="458252070" to="837434413#1"/>
    <trip id="221" depart="221.00" from="363387082" to="765580505#0"/>
    <trip id="222" depart="222.00" from="697063415#2" to="398064688#1"/>
    <trip id="223" depart="223.00" from="482732142" to="359409613#1"/>
    <trip id="224" depart="224.00" from="573346341" to="363362961#0"/>
    <trip id="225" depart="225.00" from="707200284#14" to="562549609#0"/>
    <trip id="226" depart="226.00" from="356342322" to="-562929262#1"/>
    <trip id="227" depart="227.00" from="-562430370" to="456786214#1"/>
    <trip id="228" depart="228.00" from="562430405#8" to="362985245#2"/>
    <trip id="229" depart="229.00" from="369192637#1" to="-564196399#1"/>
    <trip id="230" depart="230.00" from="-362926673" to="-56460865#5"/>
    <trip id="231" depart="231.00" from="-562929252#2" to="-594412722#2"/>
    <trip id="232" depart="232.00" from="359441775#1" to="-369192419#2"/>
    <trip id="233" depart="233.00" from="-538162280#3" to="497064428"/>
    <trip id="234" depart="234.00" from="480650603#1" to="-359409609#0"/>
    <trip id="235" depart="235.00" from="-77777386#0" to="363359561#0"/>
    <trip id="236" depart="236.00" from="-780798254#0" to="-480701073#7"/>
    <trip id="237" depart="237.00" from="-792507562#0" to="732829173#4"/>
    <trip id="238" depart="238.00" from="363373867#2" to="52249593#0"/>
    <trip id="239" depart="239.00" from="589105295#0" to="562929278#3"/>
    <trip id="240" depart="240.00" from="-729152069#1" to="-225079365#0"/>
    <trip id="241" depart="241.00" from="-595286798#2" to="562647895"/>
    <trip id="242" depart="242.00" from="588829860#4" to="766136201"/>
    <trip id="243" depart="243.00" from="-781702674" to="562631133#1"/>
    <trip id="244" depart="244.00" from="362979842#2" to="388271176#22"/>
    <trip id="245" depart="245.00" from="-482732135#2" to="-52337090#13"/>
    <trip id="246" depart="246.00" from="-838838228" to="-359244591#1"/>
    <trip id="247" depart="247.00" from="-588829892" to="480650614#2"/>
    <trip id="248" depart="248.00" from="-762911153" to="-429939509"/>
    <trip id="249" depart="249.00" from="28820195#6" to="-363639981#1"/>
    <trip id="250" depart="250.00" from="363795535#0" to="-359244580#4"/>
    <trip id="251" depart="251.00" from="-740574672#0" to="363377201#2"/>
    <trip id="252" depart="252.00" from="-357857683#2" to="470465976#0"/>
    <trip id="253" depart="253.00" from="-363644750#0" to="359246988"/>
    <trip id="254" depart="254.00" from="-359405317#4" to="-77778100#1"/>
    <trip id="255" depart="255.00" from="-480650625#1" to="-59986229#2"/>
    <trip id="256" depart="256.00" from="562430368" to="-77778100#1"/>
    <trip id="257" depart="257.00" from="561459507#3" to="588516938#11"/>
    <trip id="258" depart="258.00" from="-562549604#2" to="-362999573#3"/>
    <trip id="259" depart="259.00" from="-264106317#2" to="363359027"/>
    <trip id="260" depart="260.00" from="913178727" to="-707200284#5"/>
    <trip id="261" depart="261.00" from="403676105#0" to="563587616#1"/>
    <trip id="262" depart="262.00" from="418161208#6" to="562647902"/>
    <trip id="263" depart="263.00" from="760609834#2" to="-480650590#2"/>
    <trip id="264" depart="264.00" from="-318783029#0" to="-398056781"/>
    <trip id="265" depart="265.00" from="-363569555#1" to="479612027#0"/>
    <trip id="266" depart="266.00" from="362999596#0" to="-497064450#1"/>
    <trip id="267" depart="267.00" from="480650560#5" to="562929285"/>
    <trip id="268" depart="268.00" from="-418161208#6" to="396049399#0"/>
    <trip id="269" depart="269.00" from="560361514#4" to="-363387100"/>
    <trip id="270" depart="270.00" from="56463069#1" to="77779581#9"/>
    <trip id="271" depart="271.00" from="-363369324#5" to="-358237498#8"/>
    <trip id="272" depart="272.00" from="-569270405#3" to="480650600#0"/>
    <trip id="273" depart="273.00" from="766136205#3" to="-830636514"/>
    <trip id="274" depart="274.00" from="480701095#3" to="-362985263#1"/>
    <trip id="275" depart="275.00" from="479199742#2" to="429410284#0"/>
    <trip id="276" depart="276.00" from="-363362946#2" to="563175147#2"/>
    <trip id="277" depart="277.00" from="588606535#2" to="369195413#2"/>
    <trip id="278" depart="278.00" from="-363387113" to="824037061"/>
    <trip id="279" depart="279.00" from="562929253" to="-707200280#2"/>
    <trip id="280" depart="280.00" from="-818744105" to="-755013833#1"/>
    <trip id="281" depart="281.00" from="359405287#9" to="-697060684#1"/>
    <trip id="282" depart="282.00" from="588553009" to="573374698#3"/>
    <trip id="283" depart="283.00" from="-363369310" to="77778245"/>
    <trip id="284" depart="284.00" from="396049392" to="586992112#4"/>
    <trip id="285" depart="285.00" from="480650610#6" to="264106317#4"/>
    <trip id="286" depart="286.00" from="539383767#9" to="77780290#1"/>
    <trip id="287" depart="287.00" from="-562929230#3" to="569270440"/>
    <trip id="288" depart="288.00" from="359441668#2" to="359405360#0"/>
    <trip id="289" depart="289.00" from="-838829236" to="562364473"/>
    <trip id="290" depart="290.00" from="-562929208#2" to="591465925"/>
    <trip id="291" depart="291.00" from="573346373#2" to="-362999603"/>
    <trip id="292" depart="292.00" from="682203076" to="-562549606#1"/>
    <trip id="293" depart="293.00" from="233703203#0" to="398041363#6"/>
    <trip id="294" depart="294.00" from="-720099431#1" to="-359244591#0"/>
    <trip id="295" depart="295.00" from="588606549" to="-479025473#3"/>
    <trip id="296" depart="296.00" from="-480650627#1" to="56460721#6"/>
    <trip id="297" depart="297.00" from="-589105280" to="696812211#3"/>
    <trip id="298" depart="298.00" from="480650570#0" to="-564196734"/>
    <trip id="299" depart="299.00" from="-225079367" to="762928197"/>
    <trip id="300" depart="300.00" from="-362995551#0" to="560361514#5"/>
    <trip id="301" depart="301.00" from="359245322#4" to="562929208#2"/>
    <trip id="302" depart="302.00" from="479199742#2" to="47884955#0"/>
    <trip id="303" depart="303.00" from="359246983#2" to="56457086#12"/>
    <trip id="304" depart="304.00" from="-362999602#2" to="-52520681#1"/>
    <trip id="305" depart="305.00" from="479199747#3" to="-588516913"/>
    <trip id="306" depart="306.00" from="363369312#0" to="359247809#5"/>
    <trip id="307" depart="307.00" from="359408303#2" to="227676625#1"/>
    <trip id="308" depart="308.00" from="55678885#12" to="-674886134"/>
    <trip id="309" depart="309.00" from="480650579#0" to="-563587616#1"/>
    <trip id="310" depart="310.00" from="-562430405#4" to="-363569537"/>
    <trip id="311" depart="311.00" from="-479085192#1" to="-363569529#3"/>
    <trip id="312" depart="312.00" from="359409624#0" to="562929257#3"/>
    <trip id="313" depart="313.00" from="-479025448#3" to="-48893428#1"/>
    <trip id="314" depart="314.00" from="359244594#0" to="561459507#6"/>
    <trip id="315" depart="315.00" from="810417277" to="362985264#4"/>
    <trip id="316" depart="316.00" from="-563587568#1" to="-363369319#1"/>
    <trip id="317" depart="317.00" from="-479085203#3" to="-552421349#2"/>
    <trip id="318" depart="318.00" from="-458252077#1" to="-233703204#0"/>
    <trip id="319" depart="319.00" from="359409612#1" to="-564196392#3"/>
    <trip id="320" depart="320.00" from="781983486#1" to="363369319#1"/>
    <trip id="321" depart="321.00" from="479605474#3" to="-363639974"/>
    <trip id="322" depart="322.00" from="595286798#0" to="359408235#0"/>
    <trip id="323" depart="323.00" from="60728753#10" to="363569537"/>
    <trip id="324" depart="324.00" from="318783034#0" to="356342307#0"/>
    <trip id="325" depart="325.00" from="-479025444#0" to="-359408235#0"/>
    <trip id="326" depart="326.00" from="756370396#0" to="359405291#3"/>
    <trip id="327" depart="327.00" from="56463453#4" to="-841112605"/>
    <trip id="328" depart="328.00" from="-359441774#1" to="429939564"/>
    <trip id="329" depart="329.00" from="-359405373#0" to="-396049390#0"/>
    <trip id="330" depart="330.00" from="362999588#1" to="-580295432#1"/>
    <trip id="331" depart="331.00" from="895307485#0" to="-363470489#1"/>
    <trip id="332" depart="332.00" from="562430390#0" to="392657886#2"/>
    <trip id="333" depart="333.00" from="563175089#1" to="-546626098#1"/>
    <trip id="334" depart="334.00" from="359408243" to="358237498#9"/>
    <trip id="335" depart="335.00" from="154148014#8" to="594807466#2"/>
    <trip id="336" depart="336.00" from="843504985#1" to="-583663582#7"/>
    <trip id="337" depart="337.00" from="363795526#2" to="396051495#0"/>
    <trip id="338" depart="338.00" from="552422310" to="762915601#0"/>
    <trip id="339" depart="339.00" from="-480650602#0" to="-480701117#2"/>
    <trip id="340" depart="340.00" from="439973751#0" to="-402763686#0"/>
    <trip id="341" depart="341.00" from="-439973742#4" to="-362985259#3"/>
    <trip id="342" depart="342.00" from="-167789679#27" to="358237498#9"/>
    <trip id="343" depart="343.00" from="363377207" to="-56463247#3"/>
    <trip id="344" depart="344.00" from="-538189243#0" to="542186394#7"/>
    <trip id="345" depart="345.00" from="480650579#1" to="359244591#1"/>
    <trip id="346" depart="346.00" from="479085194#1" to="748719921"/>
    <trip id="347" depart="347.00" from="562929286#2" to="418161208#6"/>
    <trip id="348" depart="348.00" from="441146328#3" to="756050838"/>
    <trip id="349" depart="349.00" from="-813131270#1" to="363361565#2"/>
    <trip id="350" depart="350.00" from="402763646#2" to="739468234#2"/>
    <trip id="351" depart="351.00" from="569270538#3" to="-362979847#0"/>
    <trip id="352" depart="352.00" from="-418161208#0" to="-588552960#0"/>
    <trip id="353" depart="353.00" from="560361515#2" to="363387104#4"/>
    <trip id="354" depart="354.00" from="-563587635" to="-363573309#8"/>
    <trip id="355" depart="355.00" from="479199687" to="530635250#1"/>
    <trip id="356" depart="356.00" from="757325612" to="359408299#1"/>
    <trip id="357" depart="357.00" from="359247292#1" to="-362995556#0"/>
    <trip id="358" depart="358.00" from="-359246996#6" to="233703193#1"/>
    <trip id="359" depart="359.00" from="-573346459#0" to="-562647889"/>
    <trip id="360" depart="360.00" from="-362999590#2" to="77778889#2"/>
    <trip id="361" depart="361.00" from="573843275" to="363569553"/>
    <trip id="362" depart="362.00" from="762304137" to="908404755"/>
    <trip id="363" depart="363.00" from="470465976#4" to="-563587587#0"/>
    <trip id="364" depart="364.00" from="-359247290#2" to="562918963"/>
    <trip id="365" depart="365.00" from="342703582#2" to="479025468#1"/>
    <trip id="366" depart="366.00" from="739704091#3" to="-479025468#5"/>
    <trip id="367" depart="367.00" from="363373876#2" to="441146332#3"/>
    <trip id="368" depart="368.00" from="359246996#4" to="-363359557"/>
    <trip id="369" depart="369.00" from="-594412722#1" to="-682124539#2"/>
    <trip id="370" depart="370.00" from="459201809#1" to="594412725#1"/>
    <trip id="371" depart="371.00" from="-588552941" to="497064423#2"/>
    <trip id="372" depart="372.00" from="-563587632#1" to="760609832#5"/>
    <trip id="373" depart="373.00" from="56460699#1" to="363369295#1"/>
    <trip id="374" depart="374.00" from="225079367" to="-591465927"/>
    <trip id="375" depart="375.00" from="-573346502#1" to="781684409"/>
    <trip id="376" depart="376.00" from="-762375365#2" to="362347497#7"/>
    <trip id="377" depart="377.00" from="838576265" to="479085192#4"/>
    <trip id="378" depart="378.00" from="362347492#0" to="168336010"/>
    <trip id="379" depart="379.00" from="-479025468#0" to="-740574582#0"/>
    <trip id="380" depart="380.00" from="562356520#0" to="429408778#3"/>
    <trip id="381" depart="381.00" from="562430277" to="-480650622#1"/>
    <trip id="382" depart="382.00" from="362985242" to="754594908#11"/>
    <trip id="383" depart="383.00" from="-843760747#0" to="52520671#7"/>
    <trip id="384" depart="384.00" from="-363387115#4" to="792512810"/>
    <trip id="385" depart="385.00" from="363573310#1" to="-562430376#6"/>
    <trip id="386" depart="386.00" from="-398056778#0" to="363369303#2"/>
    <trip id="387" depart="387.00" from="362985252#1" to="-363361558#0"/>
    <trip id="388" depart="388.00" from="893425206#0" to="740137791#0"/>
    <trip id="389" depart="389.00" from="233703186#0" to="-363470449#1"/>
    <trip id="390" depart="390.00" from="573346493#1" to="359408292#0"/>
    <trip id="391" depart="391.00" from="481287059" to="359441771#0"/>
    <trip id="392" depart="392.00" from="-562929262#1" to="588529268"/>
    <trip id="393" depart="393.00" from="815159183#0" to="-562549606#0"/>
    <trip id="394" depart="394.00" from="362985249#0" to="-77780126#2"/>
    <trip id="395" depart="395.00" from="740574595" to="359441668#1"/>
    <trip id="396" depart="396.00" from="676436708" to="60728745#5"/>
    <trip id="397" depart="397.00" from="-562929280#10" to="564196745#2"/>
    <trip id="398" depart="398.00" from="-778747274#3" to="756050840#3"/>
    <trip id="399" depart="399.00" from="359405294#1" to="573346524#1"/>
    <trip id="400" depart="400.00" from="-563587566#2" to="-571585514#6"/>
    <trip id="401" depart="401.00" from="363373899" to="897757435#1"/>
    <trip id="402" depart="402.00" from="359246029#1" to="-392657886#14"/>
    <trip id="403" depart="403.00" from="359441771#0" to="-707123723#0"/>
    <trip id="404" depart="404.00" from="362985250#1" to="363361296"/>
    <trip id="405" depart="405.00" from="225079833" to="-595286798#0"/>
    <trip id="406" depart="406.00" from="-479025473#3" to="52520671#0"/>
    <trip id="407" depart="407.00" from="363359562#1" to="-562032395#0"/>
    <trip id="408" depart="408.00" from="562647893#2" to="-359405294#3"/>
    <trip id="409" depart="409.00" from="554170826#4" to="539383768#11"/>