<?xml version="1.0" encoding="UTF-8"?>

<!-- generated on 03/06/21 11:37:39 by Eclipse SUMO duarouter Version 1.8.0
<configuration xmlns:xsi="http://www.w3.org/2001/XMLSchema-instance" xsi:noNamespaceSchemaLocation="http://sumo.dlr.de/xsd/duarouterConfiguration.xsd">

    <input>
        <net-file value="BSD.net.xml"/>
        <route-files value="trips.trips.xml"/>
    </input>

    <output>
        <output-file value="BSD.rou.xml"/>
        <alternatives-output value="BSD.rou.alt.xml"/>
    </output>

    <time>
        <begin value="0"/>
        <end value="500"/>
    </time>

    <report>
        <no-warnings value="true"/>
        <ignore-errors value="true"/>
        <no-step-log value="true"/>
    </report>

</configuration>
-->

<routes xmlns:xsi="http://www.w3.org/2001/XMLSchema-instance" xsi:noNamespaceSchemaLocation="http://sumo.dlr.de/xsd/routes_file.xsd">
   <route id="rute_0_1" edges="-359409608 359409609#4 -697060688 359409594#1 -359409616 359409621#1 757457244#6 757457244#7 757457244#8 757457244#9 778736460 757457243 757457242 588516938#5 154148013#0 154148013#1 154148013#2 479605468#0 479605468#1 479605468#2 479605473#5 479605473#6 479605473#0 479605473#1 479605470 -479605474#3 -479605474#2 -479605474#1 -479605474#0 816151375 479605475#1 479605475#2 479605475#3 479605466 757373595#2 775190280 359245321 359245322#0 359245322#1 359245322#2 359245322#3 359246022 766136200 766136199#0 766136199#1 766136198 264106336 264106329 776405490#0 776405490#1 756081032 758136380 749662141 756081031#0 756081031#1 562021794#2 562021794#3 562021794#4 562021794#5 562021794#6 562021794#7 562021794#8 562021794#9 562021794#10 562021792 560361514#0 560361514#1 560361514#2 560361514#3 560361514#4 560361514#5 -359245191 154148014#10 154148014#11 -484446266#8"/>
   <route id="rute_0_2" edges="-359409608 359409609#4 -697060688 359409594#1 -359409616 359409621#1 757457244#6 757457244#7 757457244#8 757457244#9 778736460 757457243 757457242 588516938#5 154148013#0 154148013#1 154148013#2 479605468#0 479605468#1 479605468#2 479605473#5 479605473#6 479605473#0 479605473#1 479605470 -479605474#3 -479605474#2 -479605474#1 -479605474#0 816151375 479605475#1 479605475#2 479605475#3 479605466 757373595#2 775190280 359245321 359245322#0 359245322#1 359245322#2 359245322#3 359246022 766136200 766136199#0 766136199#1 766136198 264106336 264106329 776405490#0 776405490#1 756081032 758136380 749662141 756081031#0 756081031#1 562021794#2 562021794#3 562021794#4 562021794#5 562021794#6 562021794#7 562021794#8 562021794#9 562021794#10 562021792 560361514#0 560361514#1 560361514#2 560361514#3 -359245190 154148014#13 359244613 359244580#0 815232744 818969401 -675107653#5"/>
   <route id="rute_0_3" edges="-359409608 359409609#4 -697060688 359409594#1 -359409616 359409621#1 757457244#6 479605451 154148013#5 154148013#6 757467200#0 757467200#1 757467199 562021794#0 562021794#1 562021794#2 562021794#3 562021794#4 562021794#5 562021794#6 562021794#7 562021794#8 562021794#9 562021794#10 562021792 560361514#0 560361514#1 560361514#2 560361514#3 560361514#4 560361514#5 560361514#6 560361514#7 359246985 676171779#0 676171779#1 359246990#2 -359246991#1 359246989#0 359246989#1 359246989#2 -359246992#1 359246990#0 359246993#0"/>
   <route id="rute_0_4" edges="-359409608 359409609#4 -697060688 359409594#1 -359409616 359409621#1 757457244#6 479605451 154148013#5 154148013#6 757467200#0 757467200#1 757467199 562021794#0 562021794#1 562021794#2 562021794#3 562021794#4 562021794#5 562021794#6 562021794#7 562021794#8 562021794#9 562021794#10 562021792 560361514#0 560361514#1 560361514#2 560361514#3 560361514#4 560361514#5 560361514#6 560361514#7 560361514#8 560361514#9 560361514#10 560361514#11 359246983#0 359246983#1 359246983#2 359246983#3 359246983#4 359246983#5 359246983#6 154148014#0 154148014#1 154148014#2 154148014#3"/>
   <route id="rute_0_5" edges="-359409608 359409609#4 -697060688 359409594#1 -359409616 359409621#1 757457244#6 757457244#7 359408310 -359408245 -470465976#2 -470465976#1 -470465976#0 675107663#3 -359408277#3 -359408277#2 -359408277#1 -359408277#0 749313693#4 749313693#5 749313693#6 749313693#7 749313693#8 749313693#9 749313693#10 749313693#11 754598165#0 754598165#1 754598165#2 777637429 757092064#0 757092064#1 757092063 754594908#0 754594908#1 754594908#2 754594908#3 754594908#4 754594908#5 754594908#6 754594908#7 754594908#8 754594908#9 754594908#10 754594908#11 754594908#12 894641851 -168336017 168336015 230287233#0 230287233#1 230287233#2 230291072"/>
   <route id="rute_0_6" edges="-359409608 359409609#4 -697060688 359409594#1 -359409616 359409621#1 757457244#6 479605451 154148013#5 154148013#6 757467200#0 757467200#1 757467199 757089161 756081030#0 756081030#1 362347492#0 362347492#1 362347492#2 362347492#3 362347492#4 362347492#5 757091805#0 757091805#1 749662139 757373594 749662140#0 749662140#1 749662140#2 757092064#0 757092064#1 757092063 754594908#0 754594908#1 754594908#2 539383767#0 539383767#1"/>
   <route id="rute_0_7" edges="-359409608 359409609#4 -697060688 359409594#1 -359409616 359409621#1 757457244#6 757457244#7 359408310 -359408245 -470465976#2 -470465976#1 -470465976#0 675107663#3 -359408277#3 -359408277#2 -359408277#1 -359408277#0 749313693#4 749313693#5 749313693#6 749313693#7 749313693#8 749313693#9 749313693#10 749313693#11 754598165#0 754598165#1 754598165#2 777637429 757092064#0 757092064#1 757092063 754594908#0 754594908#1 754594908#2 754594908#3 754594908#4 754594908#5 754594908#6 694954580 539383762#0 539383762#1 539383762#2 -846964388 539383765#3"/>
   <route id="rute_0_8" edges="-359409608 359409609#4 -697060688 359409594#1 -359409616 359409621#1 757457244#6 479605451 154148013#5 154148013#6 757467200#0 757467200#1 757467199 562021794#0 562021794#1 562021794#2 562021794#3 562021794#4 562021794#5 562021794#6 562021794#7 562021794#8 562021794#9 562021794#10 562021792 560361514#0 560361514#1 560361514#2 560361514#3 560361514#4 560361514#5 560361514#6 560361514#7 560361514#8 560361514#9 560361514#10"/>
   <route id="rute_0_9" edges="-359409608 359409609#4 -697060688 359409594#1 -359409616 359409621#1 757457244#6 479605451 154148013#5 154148013#6 757467200#0 757467200#1 757467199 562021794#0 562021794#1 562021794#2 562021794#3 562021794#4 562021794#5 562021794#6 562021794#7 562021794#8 562021794#9 562021794#10 562021792 560361514#0 560361514#1 560361514#2 560361514#3 560361514#4 560361514#5 560361514#6"/>
   <route id="rute_0_10" edges="-359409608 359409609#4 -697060688 359409594#1 -359409616 359409621#1 757457244#6 757457244#7 757457244#8 757457244#9 778736460 757457243 757457242 588516938#5 154148013#0 154148013#1 154148013#2 479605468#0 479605468#1 479605468#2 479605473#5 479605473#6 479605473#0 479605473#1 479605470 -479605474#3 -479605474#2 -479605474#1 -479605474#0 816151375 479605475#1 479605475#2 479605475#3 479605466 757373595#2 775190280 359245321 359245322#0 359245322#1 359245322#2 359245322#3 359246022 766136200 766136199#0 766136199#1 766136198 264106336 264106329 776405490#0 776405490#1 756081032 758136380 749662141 757088117#0 757088117#1 562021794#0 562021794#1"/>
   <route id="rute_0_11" edges="-359409608 359409609#4 -697060688 359409594#1 -359409616 359409621#1 757457244#6 479605451 154148013#5 154148013#6"/>
   <route id="rute_0_12" edges="-359409608 359409609#4 -697060688 359409594#1 -359409616 359409621#1 757457244#6 757457244#7 359408310 -359408245 -470465976#2 -470465976#1 -470465976#0 675107663#3 -359408277#3 -359408277#2 -359408277#1 -359408277#0 749313693#4 749313693#5 749313693#6 749313693#7 749313693#8 749313693#9 749313693#10 749313693#11 754598165#0 754598165#1 754598165#2 777637429 757092064#0 757092064#1 757092063 754594908#0 754594908#1 754594908#2 754594908#3 754594908#4"/>
   <route id="rute_0_13" edges="-359409608 359409609#4 -697060688 359409594#1 -359409616 359409621#1 757457244#6 757457244#7 359408310 -359408245 -470465976#2 -470465976#1 -470465976#0 675107663#3 -359408277#3 -359408277#2 -359408277#1 -359408277#0 749313693#4 749313693#5 749313693#6 749313693#7 749313693#8 749313693#9 749313693#10 749313693#11 754598165#0 754598165#1 754598165#2 777637429 757092064#0 757092064#1 757092063 754594908#0 754594908#1 754594908#2 754594908#3 754594908#4 754594908#5 754594908#6 694954580 539383768#5 539383768#6"/>
   <route id="rute_0_14" edges="-359409608 359409609#4 -697060688 359409594#1 -359409616 359409621#1 757457244#6 757457244#7 359408310 -359408245 -470465976#2 -470465976#1 -470465976#0 675107663#3 -359408277#3 -359408277#2 -359408277#1 -359408277#0 749313693#4 749313693#5 749313693#6 749313693#7 749313693#8 749313693#9 749313693#10 749313693#11 754598165#0 754598165#1 754598165#2 777637429 757092064#0 757092064#1 757092063 754594908#0 754594908#1 754594908#2 754594908#3 754594908#4 754594908#5 754594908#6 754594908#7 754594908#8 754594908#9 754594908#10 754594908#11 757096026 674365071 674365070 539383768#1 539383768#2"/>
   <route id="rute_0_15" edges="-359409608 359409609#4 -697060688 359409594#1 -359409616 359409621#1 757457244#6 757457244#7 359408310 -359408245 -470465976#2 -470465976#1 -470465976#0 675107663#3 -359408277#3 -359408277#2 -359408277#1 -359408277#0 749313693#4 749313693#5 749313693#6 749313693#7 749313693#8 749313693#9 749313693#10 749313693#11 754598165#0 754598165#1 754598165#2 777637429 757092064#0 757092064#1 757092063 754594908#0 754594908#1 754594908#2 754594908#3 754594908#4 754594908#5 754594908#6 754594908#7 754594908#8 754594908#9 754594908#10 754594908#11 754594908#12 894425583 894641852 676448722 894641850 894641853 539383768#0"/>
   <route id="rute_1_0" edges="-484446266#8 484446266#8 154148014#12 154148014#13 154148014#14 154148014#15 154148014#16 154148014#17 154148014#18 562021790#0 562021790#1 757390879#0 757390879#1 562021795#0 562021795#1 562021795#2 562021795#3 562021795#4 562021795#5 757373596 757373599 757373597#0 757373597#1 757373600#0 757373600#1 757373600#2 757373600#3 757373598 757457244#0 757457244#1 757457244#2 757457244#3 757457244#4 359409621#0 359409616 359409594#2 359409594#0 697060688 697060687#0 -359409608"/>
   <route id="rute_1_2" edges="-484446266#8 484446266#8 154148014#12 154148014#13 359244613 359244580#0 815232744 818969401 -675107653#5"/>
   <route id="rute_1_3" edges="-484446266#8 484446266#8 154148014#12 359245190 560361514#4 560361514#5 560361514#6 560361514#7 359246985 676171779#0 676171779#1 359246990#2 -359246991#1 359246989#0 359246989#1 359246989#2 -359246992#1 359246990#0 359246993#0"/>
   <route id="rute_1_4" edges="-484446266#8 484446266#8 154148014#12 359245190 560361514#4 560361514#5 560361514#6 560361514#7 560361514#8 560361514#9 560361514#10 560361514#11 359246983#0 359246983#1 359246983#2 359246983#3 359246983#4 359246983#5 359246983#6 154148014#0 154148014#1 154148014#2 154148014#3"/>
   <route id="rute_1_5" edges="-484446266#8 -484446266#7 -484446266#6 -484446266#5 -484446266#4 -484446266#3 812431394#0 -562929192 -562929191#1 -562929191#0 713575899#2 713575899#3 713575899#4 713575898#0 713575898#1 484446243#0 359244579#1 -359244606#1 -359244606#0 359244604#0 359244586 -219132686#0 230287233#0 230287233#1 230287233#2 230291072"/>
   <route id="rute_1_6" edges="-484446266#8 484446266#8 154148014#12 154148014#13 154148014#14 154148014#15 154148014#16 154148014#17 154148014#18 562021790#0 562021790#1 757390879#0 757390879#1 562021795#0 562021795#1 562021795#2 562021795#3 562021795#4 562021795#5 757373596 757373599 757373597#0 757373597#1 757373600#0 757373600#1 757373600#2 757373600#3 756081030#0 756081030#1 362347492#0 362347492#1 362347492#2 362347492#3 362347492#4 362347492#5 757091805#0 757091805#1 749662139 757373594 749662140#0 749662140#1 749662140#2 757092064#0 757092064#1 757092063 754594908#0 754594908#1 754594908#2 539383767#0 539383767#1"/>
   <route id="rute_1_7" edges="-484446266#8 -484446266#7 -484446266#6 -484446266#5 -484446266#4 -484446266#3 -484446266#2 -484446266#1 -484446266#0 -713878127 -562929286#2 -562430390#2 -562430390#1 -562430390#0 -562430391#0 -562430404#0 -562430405#1 -562430405#0 562430403 359247815#2 359247809#10 359247814 539383762#6 -359247812 539383765#2 539383765#3"/>
   <route id="rute_1_8" edges="-484446266#8 484446266#8 154148014#12 359245190 560361514#4 560361514#5 560361514#6 560361514#7 560361514#8 560361514#9 560361514#10"/>
   <route id="rute_1_9" edges="-484446266#8 484446266#8 154148014#12 359245190 560361514#4 560361514#5 560361514#6"/>
   <route id="rute_1_10" edges="-484446266#8 484446266#8 154148014#12 154148014#13 154148014#14 154148014#15 154148014#16 154148014#17 154148014#18 562021790#0 562021790#1 757390879#0 757390879#1 562021795#0 562021795#1 562021795#2 562021795#3 562021795#4 562021795#5 757373596 757373599 757373597#0 757373597#1 757373600#0 757373600#1 757373600#2 757373600#3 757373598 757457244#0 757457244#1 757457244#2 757457244#3 479605450 154148013#6 757467200#0 757467200#1 757467199 562021794#0 562021794#1"/>
   <route id="rute_1_11" edges="-484446266#8 484446266#8 154148014#12 154148014#13 154148014#14 154148014#15 154148014#16 154148014#17 154148014#18 562021790#0 562021790#1 757390879#0 757390879#1 562021795#0 562021795#1 562021795#2 562021795#3 562021795#4 562021795#5 757373596 757373599 757373597#0 757373597#1 757373600#0 757373600#1 757373600#2 757373600#3 757373598 757457244#0 757457244#1 757457244#2 757457244#3 479605450 154148013#6"/>
   <route id="rute_1_12" edges="-484446266#8 484446266#8 154148014#12 154148014#13 154148014#14 154148014#15 154148014#16 154148014#17 154148014#18 562021790#0 562021790#1 757390879#0 757390879#1 562021795#0 562021795#1 562021795#2 562021795#3 562021795#4 562021795#5 757373596 757373599 757373597#0 757373597#1 757373600#0 757373600#1 757373600#2 757373600#3 756081030#0 756081030#1 362347492#0 362347492#1 362347492#2 362347492#3 362347492#4 362347492#5 757091805#0 757091805#1 749662139 757373594 757092065 757092063 754594908#0 754594908#1 754594908#2 754594908#3 754594908#4"/>
   <route id="rute_1_13" edges="-484446266#8 484446266#8 154148014#12 154148014#13 154148014#14 154148014#15 154148014#16 154148014#17 154148014#18 562021790#0 562021790#1 757390879#0 757390879#1 562021795#0 562021795#1 562021795#2 359247813#0 359247813#1 359247813#2 359247813#3 359247813#4 359247813#5 359247813#6 359247813#7 359247813#8 359247813#9 359247813#10 359247813#11 359247813#12 694954580 539383768#5 539383768#6"/>
   <route id="rute_1_14" edges="-484446266#8 -484446266#7 -484446266#6 -484446266#5 -484446266#4 -484446266#3 812431394#0 812431394#1 812431394#2 812431394#3 713575899#0 713575899#1 713575899#2 713575899#3 713575899#4 713575898#0 713575898#1 484446243#0 484446243#1 -359244606#2 -359244606#1 -359244606#0 359244604#0 359244586 -219132686#0 -682059305#7 168335998 168336017 676448723 894641852 676448722 894641850 894641853 539383768#0 539383768#1 539383768#2"/>
   <route id="rute_1_15" edges="-484446266#8 484446266#8 154148014#12 359245190 560361514#4 560361514#5 560361514#6 560361514#7 560361514#8 560361514#9 560361514#10 560361514#11 359246983#0 359246983#1 359246983#2 359246983#3 359246983#4 359247808#0 359247808#1 359247808#2 359247808#3 359247808#4 359247808#5 359247808#6 359247808#7 822180069#0 894641854#0 894641854#1 894641854#2 894641854#3 894641853 539383768#0"/>
   <route id="rute_2_0" edges="-675107653#5 -675107653#4 815241572 818969399 359244580#10 359244580#11 729090489 154148014#18 562021790#0 562021790#1 757390879#0 757390879#1 562021795#0 562021795#1 562021795#2 562021795#3 562021795#4 562021795#5 757373596 757373599 757373597#0 757373597#1 757373600#0 757373600#1 757373600#2 757373600#3 757373598 757457244#0 757457244#1 757457244#2 757457244#3 757457244#4 359409621#0 359409616 359409594#2 359409594#0 697060688 697060687#0 -359409608"/>
   <route id="rute_2_1" edges="-675107653#5 -675107653#4 815241572 818969399 359244580#10 359244580#11 729090489 154148014#18 562021790#0 562021790#1 757390879#0 757390879#1 562021795#0 562021795#1 359245193 562021794#5 562021794#6 562021794#7 562021794#8 562021794#9 562021794#10 562021792 560361514#0 560361514#1 560361514#2 560361514#3 560361514#4 560361514#5 -359245191 154148014#10 154148014#11 -484446266#8"/>
   <route id="rute_2_3" edges="-675107653#5 675107653#5 -815232743 815232745 818969400 -359244580#1 -359244580#0 676171780 154148014#15 154148014#16 154148014#17 154148014#18 562021790#0 562021790#1 757390879#0 757390879#1 562021795#0 562021795#1 359245193 562021794#5 562021794#6 562021794#7 562021794#8 562021794#9 562021794#10 562021792 560361514#0 560361514#1 560361514#2 560361514#3 560361514#4 560361514#5 560361514#6 560361514#7 359246985 676171779#0 676171779#1 359246990#2 -359246991#1 359246989#0 359246989#1 359246989#2 -359246992#1 359246990#0 359246993#0"/>
   <route id="rute_2_4" edges="-675107653#5 -675107653#4 815241572 818969399 359244580#10 359244580#11 729090489 154148014#18 562021790#0 562021790#1 757390879#0 757390879#1 562021795#0 562021795#1 359245193 562021794#5 562021794#6 562021794#7 562021794#8 562021794#9 562021794#10 562021792 560361514#0 560361514#1 560361514#2 560361514#3 560361514#4 560361514#5 560361514#6 560361514#7 560361514#8 560361514#9 560361514#10 560361514#11 359246983#0 359246983#1 359246983#2 359246983#3 359246983#4 359246983#5 359246983#6 154148014#0 154148014#1 154148014#2 154148014#3"/>
   <route id="rute_2_5" edges="-675107653#5 675107653#5 -815232743 815232745 818969400 -359244580#1 -359244580#0 676171780 154148014#15 154148014#16 154148014#17 154148014#18 562021790#0 562021790#1 757390879#0 757390879#1 562021795#0 562021795#1 562021795#2 359247813#0 359247813#1 359247813#2 359247813#3 359247813#4 359247813#5 359247813#6 359247813#7 359247813#8 359247813#9 359247813#10 359247813#11 359247813#12 754594908#7 754594908#8 754594908#9 754594908#10 754594908#11 754594908#12 894641851 -168336017 168336015 230287233#0 230287233#1 230287233#2 230291072"/>
   <route id="rute_2_6" edges="-675107653#5 -675107653#4 815241572 818969399 359244580#10 359244580#11 729090489 154148014#18 562021790#0 562021790#1 757390879#0 757390879#1 562021795#0 562021795#1 562021795#2 562021795#3 562021795#4 562021795#5 757373596 757373599 757373597#0 757373597#1 757373600#0 757373600#1 757373600#2 757373600#3 756081030#0 756081030#1 362347492#0 362347492#1 362347492#2 362347492#3 362347492#4 362347492#5 757091805#0 757091805#1 749662139 757373594 749662140#0 749662140#1 749662140#2 757092064#0 757092064#1 757092063 754594908#0 754594908#1 754594908#2 539383767#0 539383767#1"/>
   <route id="rute_2_7" edges="-675107653#5 -675107653#4 815241572 818969399 359244580#10 359244580#11 729090489 154148014#18 562021790#0 562021790#1 757390879#0 757390879#1 562021795#0 562021795#1 562021795#2 562021795#3 562021795#4 562021795#5 757373596 757373599 757373597#0 757373597#1 757373600#0 757373600#1 757373600#2 757373600#3 756081030#0 756081030#1 362347492#0 362347492#1 362347492#2 362347492#3 362347492#4 362347492#5 757091805#0 757091805#1 749662139 757373594 749662140#0 749662140#1 749662140#2 756080770 563175147#0 563175147#1 563175147#2 -359247809#20 -359247809#19 -359247809#18 -359247809#17 -359247809#16 -359247809#15 -359247809#14 -359247809#13 -359247809#12 -359247809#11 359247814 539383762#6 -359247812 539383765#2 539383765#3"/>
   <route id="rute_2_8" edges="-675107653#5 -675107653#4 815241572 818969399 359244580#10 359244580#11 729090489 154148014#18 562021790#0 562021790#1 757390879#0 757390879#1 562021795#0 562021795#1 359245193 562021794#5 562021794#6 562021794#7 562021794#8 562021794#9 562021794#10 562021792 560361514#0 560361514#1 560361514#2 560361514#3 560361514#4 560361514#5 560361514#6 560361514#7 560361514#8 560361514#9 560361514#10"/>
   <route id="rute_2_9" edges="-675107653#5 -675107653#4 815241572 818969399 359244580#10 359244580#11 729090489 154148014#18 562021790#0 562021790#1 757390879#0 757390879#1 562021795#0 562021795#1 359245193 562021794#5 562021794#6 562021794#7 562021794#8 562021794#9 562021794#10 562021792 560361514#0 560361514#1 560361514#2 560361514#3 560361514#4 560361514#5 560361514#6"/>
   <route id="rute_2_10" edges="-675107653#5 675107653#5 -815232743 815232745 818969400 -359244580#1 -359244580#0 676171780 154148014#15 154148014#16 154148014#17 154148014#18 562021790#0 562021790#1 757390879#0 757390879#1 562021795#0 562021795#1 359245193 562021794#5 562021794#6 562021794#7 562021794#8 562021794#9 562021794#10 562021792 560361514#0 560361514#1 560361514#2 560361514#3 560361514#4 -562549606#2 -562549606#1 -562549606#0 188798031#2 55677625 762915601#0 762915601#1 219064996#4 219064996#5 219064996#6 762915596 219064998#0 219064998#1 219064998#2 219064998#3 219064998#4 219064998#5 219064998#6 818749255#0 818749255#1 818749256 818749257 264106317#0 264106317#1 264106317#2 264106317#3 264106317#4 264106317#5 264106317#6 264106317#7 264106317#8 264106317#9 264106317#10 264106317#11 396051491#0 396051491#1 396051491#2 396051491#3 396051491#4 396051491#5 766136204 766136203 766136202 766136201 766136200 766136199#0 766136199#1 766136198 264106336 264106329 776405490#0 776405490#1 756081032 758136380 749662141 757088117#0 757088117#1 562021794#0 562021794#1"/>
   <route id="rute_2_11" edges="-675107653#5 -675107653#4 815241572 818969399 359244580#10 359244580#11 729090489 154148014#18 562021790#0 562021790#1 757390879#0 757390879#1 562021795#0 562021795#1 562021795#2 562021795#3 562021795#4 562021795#5 757373596 757373599 757373597#0 757373597#1 757373600#0 757373600#1 757373600#2 757373600#3 757373598 757457244#0 757457244#1 757457244#2 757457244#3 479605450 154148013#6"/>
   <route id="rute_2_12" edges="-675107653#5 -675107653#4 815241572 818969399 359244580#10 359244580#11 729090489 154148014#18 562021790#0 562021790#1 757390879#0 757390879#1 562021795#0 562021795#1 562021795#2 562021795#3 562021795#4 562021795#5 757373596 757373599 757373597#0 757373597#1 757373600#0 757373600#1 757373600#2 757373600#3 756081030#0 756081030#1 362347492#0 362347492#1 362347492#2 362347492#3 362347492#4 362347492#5 757091805#0 757091805#1 749662139 757373594 757092065 757092063 754594908#0 754594908#1 754594908#2 754594908#3 754594908#4"/>
   <route id="rute_2_13" edges="-675107653#5 675107653#5 -815232743 815232745 818969400 -359244580#1 -359244580#0 676171780 154148014#15 154148014#16 154148014#17 154148014#18 562021790#0 562021790#1 757390879#0 757390879#1 562021795#0 562021795#1 562021795#2 359247813#0 359247813#1 359247813#2 359247813#3 359247813#4 359247813#5 359247813#6 359247813#7 359247813#8 359247813#9 359247813#10 359247813#11 359247813#12 694954580 539383768#5 539383768#6"/>
   <route id="rute_2_14" edges="-675107653#5 -675107653#4 815241572 818969399 359244580#10 359244580#11 729090489 154148014#18 562021790#0 562021790#1 757390879#0 757390879#1 562021795#0 562021795#1 562021795#2 562021795#3 562021795#4 562021795#5 757373596 757373599 757373597#0 757373597#1 757373600#0 757373600#1 757373600#2 757373600#3 756081030#0 756081030#1 362347492#0 362347492#1 362347492#2 362347492#3 362347492#4 362347492#5 757091805#0 757091805#1 749662139 757373594 749662140#0 749662140#1 749662140#2 757092064#0 757092064#1 757092063 754594908#0 754594908#1 754594908#2 754594908#3 754594908#4 754594908#5 754594908#6 754594908#7 754594908#8 754594908#9 754594908#10 754594908#11 757096026 674365071 674365070 539383768#1 539383768#2"/>
   <route id="rute_2_15" edges="-675107653#5 -675107653#4 815241572 818969399 359244580#10 359244580#11 729090489 154148014#18 562021790#0 562021790#1 757390879#0 757390879#1 562021795#0 562021795#1 562021795#2 562021795#3 562021795#4 562021795#5 757373596 757373599 757373597#0 757373597#1 757373600#0 757373600#1 757373600#2 757373600#3 756081030#0 756081030#1 362347492#0 362347492#1 362347492#2 362347492#3 362347492#4 362347492#5 757091805#0 757091805#1 749662139 757373594 749662140#0 749662140#1 749662140#2 757092064#0 757092064#1 757092063 754594908#0 754594908#1 754594908#2 754594908#3 754594908#4 754594908#5 754594908#6 754594908#7 754594908#8 754594908#9 754594908#10 754594908#11 754594908#12 894425583 894641852 676448722 894641850 894641853 539383768#0"/>
   <route id="rute_3_0" edges="359246993#0 359246993#1 819067603 560361514#9 359245194 154148014#4 154148014#5 154148014#6 154148014#7 154148014#8 154148014#9 154148014#10 154148014#11 154148014#12 154148014#13 154148014#14 154148014#15 154148014#16 154148014#17 154148014#18 562021790#0 562021790#1 757390879#0 757390879#1 562021795#0 562021795#1 562021795#2 562021795#3 562021795#4 562021795#5 757373596 757373599 757373597#0 757373597#1 757373600#0 757373600#1 757373600#2 757373600#3 757373598 757457244#0 757457244#1 757457244#2 757457244#3 757457244#4 359409621#0 359409616 359409594#2 359409594#0 697060688 697060687#0 -359409608"/>
   <route id="rute_3_1" edges="359246993#0 359246993#1 819067603 560361514#9 359245194 154148014#4 154148014#5 154148014#6 154148014#7 154148014#8 154148014#9 154148014#10 154148014#11 -484446266#8"/>
   <route id="rute_3_2" edges="359246993#0 359246993#1 819067603 560361514#9 359245194 154148014#4 154148014#5 154148014#6 154148014#7 154148014#8 154148014#9 154148014#10 154148014#11 154148014#12 154148014#13 359244613 359244580#0 815232744 818969401 -675107653#5"/>
   <route id="rute_3_4" edges="359246993#0 359246993#1 819067603 560361514#9 560361514#10 560361514#11 359246983#0 359246983#1 359246983#2 359246983#3 359246983#4 359246983#5 359246983#6 154148014#0 154148014#1 154148014#2 154148014#3"/>
   <route id="rute_3_5" edges="359246993#0 359246993#1 819067603 560361514#9 359245194 154148014#4 154148014#5 682199979 168336006#0 168336006#1 168336006#2 682059305#1 682059305#2 682059305#3 682059305#4 682059305#5 682059305#6 682059305#7 230287233#0 230287233#1 230287233#2 230291072"/>
   <route id="rute_3_6" edges="359246993#0 359246993#1 819067603 560361514#9 359245194 154148014#4 154148014#5 154148014#6 154148014#7 154148014#8 154148014#9 154148014#10 154148014#11 154148014#12 154148014#13 154148014#14 154148014#15 154148014#16 154148014#17 154148014#18 562021790#0 562021790#1 757390879#0 757390879#1 562021795#0 562021795#1 562021795#2 562021795#3 562021795#4 562021795#5 757373596 757373599 757373597#0 757373597#1 757373600#0 757373600#1 757373600#2 757373600#3 756081030#0 756081030#1 362347492#0 362347492#1 362347492#2 362347492#3 362347492#4 362347492#5 757091805#0 757091805#1 749662139 757373594 757092065 757092063 754594908#0 754594908#1 754594908#2 539383767#0 539383767#1"/>
   <route id="rute_3_7" edges="359246993#0 359246993#1 819067603 560361514#9 359245194 154148014#4 154148014#5 154148014#6 154148014#7 154148014#8 154148014#9 154148014#10 154148014#11 154148014#12 154148014#13 154148014#14 154148014#15 154148014#16 154148014#17 154148014#18 562021790#0 562021790#1 757390879#0 757390879#1 562021795#0 562021795#1 562021795#2 359247813#0 359247813#1 359247813#2 359247813#3 359247813#4 359247813#5 359247813#6 359247813#7 359247813#8 359247813#9 359247813#10 359247813#11 359247813#12 694954580 539383762#0 539383762#1 539383762#2 -846964388 539383765#3"/>
   <route id="rute_3_8" edges="359246993#0 359246993#1 819067603 560361514#9 560361514#10"/>
   <route id="rute_3_9" edges="359246993#0 359246993#1 819067603 560361514#9 359245194 154148014#4 154148014#5 154148014#6 154148014#7 154148014#8 154148014#9 359245191 560361514#6"/>
   <route id="rute_3_10" edges="359246993#0 359246993#1 819067603 560361514#9 359245194 154148014#4 154148014#5 154148014#6 154148014#7 154148014#8 154148014#9 154148014#10 154148014#11 154148014#12 154148014#13 154148014#14 154148014#15 154148014#16 154148014#17 154148014#18 562021790#0 562021790#1 757390879#0 757390879#1 562021795#0 562021795#1 562021795#2 562021795#3 562021795#4 562021795#5 757373596 757373599 757373597#0 757373597#1 757373600#0 757373600#1 757373600#2 757373600#3 757373598 757457244#0 757457244#1 757457244#2 757457244#3 479605450 154148013#6 757467200#0 757467200#1 757467199 562021794#0 562021794#1"/>
   <route id="rute_3_11" edges="359246993#0 359246993#1 819067603 560361514#9 359245194 154148014#4 154148014#5 154148014#6 154148014#7 154148014#8 154148014#9 154148014#10 154148014#11 154148014#12 154148014#13 154148014#14 154148014#15 154148014#16 154148014#17 154148014#18 562021790#0 562021790#1 757390879#0 757390879#1 562021795#0 562021795#1 562021795#2 562021795#3 562021795#4 562021795#5 757373596 757373599 757373597#0 757373597#1 757373600#0 757373600#1 757373600#2 757373600#3 757373598 757457244#0 757457244#1 757457244#2 757457244#3 479605450 154148013#6"/>
   <route id="rute_3_12" edges="359246993#0 359246993#1 819067603 560361514#9 359245194 154148014#4 154148014#5 154148014#6 154148014#7 154148014#8 154148014#9 154148014#10 154148014#11 154148014#12 154148014#13 154148014#14 154148014#15 154148014#16 154148014#17 154148014#18 562021790#0 562021790#1 757390879#0 757390879#1 562021795#0 562021795#1 562021795#2 562021795#3 562021795#4 359247810#0 359247810#1 359247810#2 359247810#3 359247810#4 359247810#5 359247810#6 359247810#7 359247810#8 359247810#9 754594908#4"/>
   <route id="rute_3_13" edges="359246993#0 359246993#1 819067603 560361514#9 359245194 154148014#4 154148014#5 154148014#6 154148014#7 154148014#8 154148014#9 154148014#10 154148014#11 154148014#12 154148014#13 154148014#14 154148014#15 154148014#16 154148014#17 154148014#18 562021790#0 562021790#1 757390879#0 757390879#1 562021795#0 562021795#1 562021795#2 359247813#0 359247813#1 359247813#2 359247813#3 359247813#4 359247813#5 359247813#6 359247813#7 359247813#8 359247813#9 359247813#10 359247813#11 359247813#12 694954580 539383768#5 539383768#6"/>
   <route id="rute_3_14" edges="359246993#0 359246993#1 819067603 560361514#9 560361514#10 560361514#11 359246983#0 359246983#1 359246983#2 359246983#3 359246983#4 359247808#0 359247808#1 359247808#2 359247808#3 359247808#4 359247808#5 359247808#6 359247808#7 822180069#0 894641854#0 894641854#1 894641854#2 894641854#3 894641853 539383768#0 539383768#1 539383768#2"/>