<routes>
<vTypes>

    <vType id="car1" accel="1.5" decel="8.0" sigma="0.5" tau="1.0" length="5" minGap="1.5" maxSpeed="45" 
    speedFactor="1.2" speedDev="0.1" guishape="passenger"/>
    
</vTypes>

    <route id="motorway" color="1,1,0" edges="SN_approach SN_end"/>
    <route id="ramp" color="1,1,0" edges="on_ramp SN_end"/>
<flows>
<vehicle id="2" route="motorway" depart="0" departLane="0" departSpeed="max"/>
</flows>
</routes>