<?xml version="1.0" encoding="UTF-8"?>

<!-- generated on 03/04/21 17:40:20 by Eclipse SUMO netconvert Version 1.8.0
<configuration xmlns:xsi="http://www.w3.org/2001/XMLSchema-instance" xsi:noNamespaceSchemaLocation="http://sumo.dlr.de/xsd/netconvertConfiguration.xsd">

    <input>
        <osm-files value="map-bsd1.osm"/>
    </input>

    <output>
        <output-file value="map-bsd1.net.xml"/>
    </output>

    <projection>
        <proj.utm value="true"/>
    </projection>

    <report>
        <aggregate-warnings value="5"/>
    </report>

</configuration>
-->

<net version="1.6" junctionCornerDetail="5" limitTurnSpeed="5.50" xmlns:xsi="http://www.w3.org/2001/XMLSchema-instance" xsi:noNamespaceSchemaLocation="http://sumo.dlr.de/xsd/net_file.xsd">

    <location netOffset="-681609.59,698368.80" convBoundary="0.00,0.00,2998.18,2904.86" origBoundary="106.610795,-6.362291,106.673848,-6.004623" projParameter="+proj=utm +zone=48 +ellps=WGS84 +datum=WGS84 +units=m +no_defs"/>

    <type id="highway.bridleway" priority="1" numLanes="1" speed="2.78" allow="pedestrian" oneway="1" width="2.00"/>
    <type id="highway.bus_guideway" priority="1" numLanes="1" speed="27.78" allow="bus" oneway="1"/>
    <type id="highway.cycleway" priority="1" numLanes="1" speed="8.33" allow="bicycle" oneway="0" width="1.00"/>
    <type id="highway.footway" priority="1" numLanes="1" speed="2.78" allow="pedestrian" oneway="1" width="2.00"/>
    <type id="highway.ford" priority="1" numLanes="1" speed="2.78" allow="army" oneway="0"/>
    <type id="highway.living_street" priority="2" numLanes="1" speed="2.78" disallow="tram rail_urban rail rail_electric rail_fast ship" oneway="0"/>
    <type id="highway.motorway" priority="14" numLanes="2" speed="39.44" allow="private emergency authority army vip passenger hov taxi bus coach delivery truck trailer motorcycle evehicle custom1 custom2" oneway="1"/>
    <type id="highway.motorway_link" priority="9" numLanes="1" speed="22.22" allow="private emergency authority army vip passenger hov taxi bus coach delivery truck trailer motorcycle evehicle custom1 custom2" oneway="1"/>
    <type id="highway.path" priority="1" numLanes="1" speed="2.78" allow="pedestrian bicycle" oneway="0" width="2.00"/>
    <type id="highway.pedestrian" priority="1" numLanes="1" speed="2.78" allow="pedestrian" oneway="1" width="2.00"/>
    <type id="highway.primary" priority="12" numLanes="2" speed="27.78" disallow="tram rail_urban rail rail_electric rail_fast ship" oneway="0"/>
    <type id="highway.primary_link" priority="7" numLanes="1" speed="22.22" disallow="tram rail_urban rail rail_electric rail_fast ship" oneway="0"/>
    <type id="highway.raceway" priority="15" numLanes="2" speed="83.33" allow="vip" oneway="0"/>
    <type id="highway.residential" priority="3" numLanes="1" speed="13.89" disallow="tram rail_urban rail rail_electric rail_fast ship" oneway="0"/>
    <type id="highway.secondary" priority="11" numLanes="1" speed="27.78" disallow="tram rail_urban rail rail_electric rail_fast ship" oneway="0"/>
    <type id="highway.secondary_link" priority="6" numLanes="1" speed="22.22" disallow="tram rail_urban rail rail_electric rail_fast ship" oneway="0"/>
    <type id="highway.service" priority="1" numLanes="1" speed="5.56" allow="pedestrian delivery bicycle" oneway="0"/>
    <type id="highway.stairs" priority="1" numLanes="1" speed="1.39" allow="pedestrian" oneway="1" width="2.00"/>
    <type id="highway.step" priority="1" numLanes="1" speed="1.39" allow="pedestrian" oneway="1" width="2.00"/>
    <type id="highway.steps" priority="1" numLanes="1" speed="1.39" allow="pedestrian" oneway="1" width="2.00"/>
    <type id="highway.tertiary" priority="10" numLanes="1" speed="22.22" disallow="tram rail_urban rail rail_electric rail_fast ship" oneway="0"/>
    <type id="highway.tertiary_link" priority="5" numLanes="1" speed="22.22" disallow="tram rail_urban rail rail_electric rail_fast ship" oneway="0"/>
    <type id="highway.track" priority="1" numLanes="1" speed="5.56" allow="pedestrian motorcycle moped bicycle" oneway="0"/>
    <type id="highway.trunk" priority="13" numLanes="2" speed="27.78" disallow="pedestrian bicycle tram rail_urban rail rail_electric rail_fast ship" oneway="0"/>
    <type id="highway.trunk_link" priority="8" numLanes="1" speed="22.22" disallow="pedestrian bicycle tram rail_urban rail rail_electric rail_fast ship" oneway="0"/>
    <type id="highway.unclassified" priority="4" numLanes="1" speed="13.89" disallow="tram rail_urban rail rail_electric rail_fast ship" oneway="0"/>
    <type id="highway.unsurfaced" priority="1" numLanes="1" speed="8.33" disallow="tram rail_urban rail rail_electric rail_fast ship" oneway="0"/>
    <type id="railway.highspeed" priority="21" numLanes="1" speed="69.44" allow="rail_fast" oneway="1"/>
    <type id="railway.light_rail" priority="19" numLanes="1" speed="27.78" allow="rail_urban" oneway="1"/>
    <type id="railway.preserved" priority="16" numLanes="1" speed="27.78" allow="rail" oneway="1"/>
    <type id="railway.rail" priority="20" numLanes="1" speed="44.44" allow="rail" oneway="1"/>
    <type id="railway.subway" priority="18" numLanes="1" speed="27.78" allow="rail_urban" oneway="1"/>
    <type id="railway.tram" priority="17" numLanes="1" speed="13.89" allow="tram" oneway="1"/>

    <edge id=":1667333054_0" function="internal">
        <lane id=":1667333054_0_0" index="0" disallow="tram rail_urban rail rail_electric rail_fast ship" speed="27.78" length="13.91" shape="663.24,2008.88 663.13,2012.92 663.20,2015.68 663.50,2018.44 664.08,2022.44"/>
        <lane id=":1667333054_0_1" index="1" disallow="tram rail_urban rail rail_electric rail_fast ship" speed="27.78" length="13.91" shape="660.05,2008.76 659.92,2012.97 659.99,2015.86 660.31,2018.73 660.92,2022.90"/>
    </edge>
    <edge id=":1667333054_2" function="internal">
        <lane id=":1667333054_2_0" index="0" disallow="tram rail_urban rail rail_electric rail_fast ship" speed="8.33" length="12.14" shape="660.05,2008.76 659.58,2012.57 658.49,2015.48 656.80,2017.49 654.48,2018.59"/>
    </edge>
    <edge id=":1667333054_3" function="internal">
        <lane id=":1667333054_3_0" index="0" disallow="tram rail_urban rail rail_electric rail_fast ship" speed="7.14" length="11.91" shape="653.71,2015.48 656.37,2015.40 658.46,2016.61 659.98,2019.11 660.92,2022.90"/>
    </edge>
    <edge id=":1667333054_4" function="internal">
        <lane id=":1667333054_4_0" index="0" disallow="tram rail_urban rail rail_electric rail_fast ship" speed="3.65" length="4.67" shape="653.71,2015.48 655.07,2015.97 655.65,2016.65 655.46,2017.52 654.48,2018.59"/>
    </edge>
    <edge id=":1796158342_0" function="internal">
        <lane id=":1796158342_0_0" index="0" disallow="tram rail_urban rail rail_electric rail_fast ship" speed="6.58" length="9.21" shape="911.47,1357.75 909.33,1356.50 907.27,1356.24 905.31,1356.99 903.44,1358.74"/>
    </edge>
    <edge id=":1796158342_1" function="internal">
        <lane id=":1796158342_1_0" index="0" disallow="tram rail_urban rail rail_electric rail_fast ship" speed="3.66" length="4.69" shape="911.47,1357.75 910.91,1356.42 911.02,1355.53 911.80,1355.08 913.25,1355.08"/>
    </edge>
    <edge id=":1796158342_2" function="internal">
        <lane id=":1796158342_2_0" index="0" disallow="tram rail_urban rail rail_electric rail_fast ship" speed="6.13" length="8.49" shape="913.29,1347.80 911.79,1349.79 911.28,1351.67 911.77,1353.43 913.25,1355.08"/>
    </edge>
    <edge id=":1796158342_3" function="internal">
        <lane id=":1796158342_3_0" index="0" disallow="tram rail_urban rail rail_electric rail_fast ship" speed="27.78" length="14.88" shape="913.29,1347.80 910.23,1350.93 908.18,1353.10 906.21,1355.36 903.44,1358.74"/>
        <lane id=":1796158342_3_1" index="1" disallow="tram rail_urban rail rail_electric rail_fast ship" speed="27.78" length="14.88" shape="911.00,1345.56 907.88,1348.75 905.79,1350.97 903.78,1353.28 900.95,1356.73"/>
    </edge>
    <edge id=":1796158361_0" function="internal">
        <lane id=":1796158361_0_0" index="0" disallow="tram rail_urban rail rail_electric rail_fast ship" speed="27.78" length="16.88" shape="1190.37,1121.15 1177.93,1132.76"/>
        <lane id=":1796158361_0_1" index="1" disallow="tram rail_urban rail rail_electric rail_fast ship" speed="27.78" length="16.88" shape="1188.01,1118.99 1175.75,1130.41"/>
    </edge>
    <edge id=":1796158361_2" function="internal">
        <lane id=":1796158361_2_0" index="0" disallow="tram rail_urban rail rail_electric rail_fast ship" speed="13.02" length="16.73" shape="1188.01,1118.99 1184.96,1121.69 1181.43,1123.62 1177.44,1124.80 1172.98,1125.22"/>
    </edge>
    <edge id=":1796158364_0" function="internal">
        <lane id=":1796158364_0_0" index="0" disallow="tram rail_urban rail rail_electric rail_fast ship" speed="27.78" length="0.10" shape="1042.67,1237.19 1042.74,1237.13"/>
        <lane id=":1796158364_0_1" index="1" disallow="tram rail_urban rail rail_electric rail_fast ship" speed="27.78" length="0.10" shape="1040.80,1234.59 1040.73,1234.65"/>
    </edge>
    <edge id=":1796158366_0" function="internal">
        <lane id=":1796158366_0_0" index="0" disallow="tram rail_urban rail rail_electric rail_fast ship" speed="27.78" length="11.42" shape="1267.25,1017.52 1261.47,1027.50"/>
        <lane id=":1796158366_0_1" index="1" disallow="tram rail_urban rail rail_electric rail_fast ship" speed="27.78" length="11.42" shape="1264.43,1016.00 1258.76,1025.80"/>
    </edge>
    <edge id=":1796158366_2" function="internal">
        <lane id=":1796158366_2_0" index="0" disallow="tram rail_urban rail rail_electric rail_fast ship" speed="6.27" length="9.04" shape="1264.43,1016.00 1262.93,1018.03 1261.18,1019.00 1259.18,1018.92 1256.93,1017.78"/>
    </edge>
    <edge id=":1796158373_0" function="internal">
        <lane id=":1796158373_0_0" index="0" disallow="tram rail_urban rail rail_electric rail_fast ship" speed="27.78" length="10.21" shape="878.88,1391.23 872.90,1399.54"/>
        <lane id=":1796158373_0_1" index="1" disallow="tram rail_urban rail rail_electric rail_fast ship" speed="27.78" length="10.21" shape="876.26,1389.39 870.32,1397.65"/>
    </edge>
    <edge id=":1796158373_2" function="internal">
        <lane id=":1796158373_2_0" index="0" disallow="tram rail_urban rail rail_electric rail_fast ship" speed="6.69" length="8.54" shape="876.26,1389.39 874.74,1390.97 872.98,1391.75 870.97,1391.74 868.71,1390.93"/>
    </edge>
    <edge id=":1796187299_0" function="internal">
        <lane id=":1796187299_0_0" index="0" allow="pedestrian delivery bicycle" speed="5.40" length="5.41" shape="1006.71,1518.78 1005.17,1518.39 1003.87,1518.48 1002.83,1519.06 1002.04,1520.13"/>
    </edge>
    <edge id=":1796187299_1" function="internal">
        <lane id=":1796187299_1_0" index="0" allow="pedestrian delivery bicycle" speed="3.65" length="4.67" shape="1006.71,1518.78 1005.88,1517.61 1005.79,1516.72 1006.45,1516.11 1007.85,1515.79"/>
    </edge>
    <edge id=":1796187299_2" function="internal">
        <lane id=":1796187299_2_0" index="0" allow="pedestrian delivery bicycle" speed="4.95" length="5.11" shape="1006.24,1511.71 1005.80,1513.06 1005.93,1514.19 1006.61,1515.10 1007.85,1515.79"/>
    </edge>
    <edge id=":1796187299_3" function="internal">
        <lane id=":1796187299_3_0" index="0" allow="pedestrian delivery bicycle" speed="5.56" length="9.41" shape="1006.24,1511.71 1002.04,1520.13"/>
    </edge>
    <edge id=":1796187307_0" function="internal">
        <lane id=":1796187307_0_0" index="0" disallow="tram rail_urban rail rail_electric rail_fast ship" speed="27.78" length="8.08" shape="1004.54,1751.24 1002.24,1750.82 1000.61,1750.81 998.98,1750.84 996.65,1750.50"/>
        <lane id=":1796187307_0_1" index="1" disallow="tram rail_urban rail rail_electric rail_fast ship" speed="27.78" length="8.08" shape="1005.37,1748.15 1003.03,1747.72 1001.38,1747.71 999.72,1747.73 997.36,1747.38"/>
        <lane id=":1796187307_0_2" index="2" disallow="tram rail_urban rail rail_electric rail_fast ship" speed="27.78" length="8.08" shape="1006.20,1745.06 1003.83,1744.62 1002.15,1744.60 1000.46,1744.61 998.06,1744.26"/>
    </edge>
    <edge id=":1796187307_3" function="internal">
        <lane id=":1796187307_3_0" index="0" allow="pedestrian delivery bicycle" speed="13.75" length="7.65" shape="1006.29,1741.17 1004.10,1741.70 1002.54,1741.83 1000.98,1741.63 998.77,1741.14"/>
    </edge>
    <edge id=":1796187392_0" function="internal">
        <lane id=":1796187392_0_0" index="0" allow="pedestrian delivery bicycle" speed="4.70" length="5.67" shape="1252.36,1560.30 1252.03,1558.66 1251.29,1557.77 1250.14,1557.63 1248.58,1558.24"/>
    </edge>
    <edge id=":1796187392_1" function="internal">
        <lane id=":1796187392_1_0" index="0" allow="pedestrian delivery bicycle" speed="5.56" length="10.14" shape="1252.36,1560.30 1252.18,1557.32 1252.03,1555.24 1251.79,1553.18 1251.35,1550.22"/>
    </edge>
    <edge id=":1796187392_2" function="internal">
        <lane id=":1796187392_2_0" index="0" allow="pedestrian bicycle" speed="4.17" length="6.09" width="2.00" shape="1252.36,1560.30 1252.37,1557.31 1252.83,1555.15 1253.32,1554.41"/>
    </edge>
    <edge id=":1796187392_9" function="internal">
        <lane id=":1796187392_9_0" index="0" allow="pedestrian bicycle" speed="4.17" length="2.15" width="2.00" shape="1253.32,1554.41 1253.72,1553.81 1255.05,1553.31"/>
    </edge>
    <edge id=":1796187392_3" function="internal">
        <lane id=":1796187392_3_0" index="0" allow="pedestrian bicycle" speed="4.17" length="7.34" shape="1255.17,1555.30 1253.06,1555.60 1251.70,1556.19 1250.43,1557.07 1248.58,1558.24"/>
    </edge>
    <edge id=":1796187392_4" function="internal">
        <lane id=":1796187392_4_0" index="0" allow="pedestrian bicycle" speed="4.17" length="6.98" shape="1255.17,1555.30 1253.80,1555.05 1252.71,1554.12 1251.89,1552.51 1251.35,1550.22"/>
    </edge>
    <edge id=":1796187392_5" function="internal">
        <lane id=":1796187392_5_0" index="0" allow="pedestrian bicycle" speed="2.78" length="2.92" width="2.00" shape="1255.17,1555.30 1254.39,1554.85 1254.11,1554.36 1254.33,1553.85 1255.05,1553.31"/>
    </edge>
    <edge id=":1796187392_6" function="internal">
        <lane id=":1796187392_6_0" index="0" allow="pedestrian delivery bicycle" speed="5.56" length="7.16" shape="1247.02,1555.45 1249.06,1554.13 1250.47,1552.82 1251.23,1551.51 1251.35,1550.22"/>
    </edge>
    <edge id=":1796187392_7" function="internal">
        <lane id=":1796187392_7_0" index="0" allow="pedestrian bicycle" speed="4.17" length="8.44" width="2.00" shape="1247.02,1555.45 1249.22,1554.29 1250.84,1553.71 1252.56,1553.46 1255.05,1553.31"/>
    </edge>
    <edge id=":1796187392_8" function="internal">
        <lane id=":1796187392_8_0" index="0" allow="pedestrian delivery bicycle" speed="3.65" length="2.55" shape="1247.02,1555.45 1248.46,1555.56 1249.20,1556.06 1249.21,1556.28"/>
    </edge>
    <edge id=":1796187392_10" function="internal">
        <lane id=":1796187392_10_0" index="0" allow="pedestrian delivery bicycle" speed="3.65" length="2.12" shape="1249.21,1556.28 1249.24,1556.95 1248.58,1558.24"/>
    </edge>
    <edge id=":1796187446_0" function="internal">
        <lane id=":1796187446_0_0" index="0" allow="pedestrian delivery bicycle" speed="5.56" length="6.63" shape="1019.62,1669.18 1020.65,1670.77 1021.70,1671.59 1023.02,1672.13 1024.87,1672.83"/>
    </edge>
    <edge id=":1796187446_1" function="internal">
        <lane id=":1796187446_1_0" index="0" allow="pedestrian delivery bicycle" speed="5.56" length="6.71" shape="1019.62,1669.18 1020.48,1670.96 1020.93,1672.25 1021.23,1673.59 1021.65,1675.54"/>
    </edge>
    <edge id=":1796187447_0" function="internal">
        <lane id=":1796187447_0_0" index="0" disallow="tram rail_urban rail rail_electric rail_fast ship" speed="27.78" length="29.99" shape="1128.73,1786.28 1099.71,1778.40"/>
        <lane id=":1796187447_0_1" index="1" disallow="tram rail_urban rail rail_electric rail_fast ship" speed="27.78" length="29.99" shape="1129.48,1783.17 1100.53,1775.31"/>
        <lane id=":1796187447_0_2" index="2" disallow="tram rail_urban rail rail_electric rail_fast ship" speed="27.78" length="29.99" shape="1130.23,1780.06 1101.36,1772.22"/>
    </edge>
    <edge id=":1796187447_3" function="internal">
        <lane id=":1796187447_3_0" index="0" allow="pedestrian delivery bicycle" speed="16.67" length="29.81" shape="1130.23,1780.06 1121.09,1777.50 1114.38,1774.90 1108.71,1772.12 1102.66,1769.00"/>
    </edge>
    <edge id=":1796187447_4" function="internal">
        <lane id=":1796187447_4_0" index="0" allow="pedestrian delivery bicycle" speed="16.67" length="29.67" shape="1130.23,1780.06 1121.38,1777.07 1115.20,1773.51 1110.04,1769.76 1104.21,1766.20"/>
    </edge>
    <edge id=":2282739510_0" function="internal">
        <lane id=":2282739510_0_0" index="0" disallow="tram rail_urban rail rail_electric rail_fast ship" speed="9.31" length="12.90" shape="2299.80,1162.11 2299.34,1158.69 2298.11,1155.83 2296.10,1153.53 2293.31,1151.80"/>
    </edge>
    <edge id=":2282739510_1" function="internal">
        <lane id=":2282739510_1_0" index="0" disallow="tram rail_urban rail rail_electric rail_fast ship" speed="27.78" length="16.69" shape="2299.80,1162.11 2299.86,1158.09 2300.15,1153.77 2300.65,1149.47 2301.34,1145.51"/>
    </edge>
    <edge id=":2282739510_2" function="internal">
        <lane id=":2282739510_2_0" index="0" disallow="tram rail_urban rail rail_electric rail_fast ship" speed="7.56" length="6.71" shape="2299.80,1162.11 2300.35,1157.66 2301.59,1155.81"/>
    </edge>
    <edge id=":2282739510_3" function="internal">
        <lane id=":2282739510_3_0" index="0" disallow="tram rail_urban rail rail_electric rail_fast ship" speed="3.65" length="2.34" shape="2299.80,1162.11 2300.58,1160.89 2301.37,1160.48"/>
    </edge>
    <edge id=":2282739510_16" function="internal">
        <lane id=":2282739510_16_0" index="0" disallow="tram rail_urban rail rail_electric rail_fast ship" speed="7.56" length="8.85" shape="2301.59,1155.81 2302.19,1154.92 2305.33,1153.90 2309.76,1154.60"/>
    </edge>
    <edge id=":2282739510_17" function="internal">
        <lane id=":2282739510_17_0" index="0" disallow="tram rail_urban rail rail_electric rail_fast ship" speed="3.65" length="2.34" shape="2301.37,1160.48 2302.18,1160.86 2303.00,1162.05"/>
    </edge>
    <edge id=":2282739510_4" function="internal">
        <lane id=":2282739510_4_0" index="0" disallow="tram rail_urban rail rail_electric rail_fast ship" speed="5.93" length="9.10" shape="2308.82,1157.66 2306.23,1157.25 2304.40,1157.85 2303.32,1159.45 2303.00,1162.05"/>
    </edge>
    <edge id=":2282739510_5" function="internal">
        <lane id=":2282739510_5_0" index="0" disallow="tram rail_urban rail rail_electric rail_fast ship" speed="18.06" length="16.59" shape="2308.82,1157.66 2305.02,1156.42 2300.98,1154.96 2296.98,1153.38 2293.31,1151.80"/>
    </edge>
    <edge id=":2282739510_6" function="internal">
        <lane id=":2282739510_6_0" index="0" disallow="tram rail_urban rail rail_electric rail_fast ship" speed="8.74" length="15.97" shape="2308.82,1157.66 2304.81,1155.82 2302.23,1153.18 2301.07,1149.74 2301.34,1145.51"/>
    </edge>
    <edge id=":2282739510_7" function="internal">
        <lane id=":2282739510_7_0" index="0" disallow="tram rail_urban rail rail_electric rail_fast ship" speed="3.65" length="4.67" shape="2308.82,1157.66 2307.91,1156.54 2307.76,1155.66 2308.37,1155.01 2309.76,1154.60"/>
    </edge>
    <edge id=":2282739510_8" function="internal">
        <lane id=":2282739510_8_0" index="0" disallow="tram rail_urban rail rail_electric rail_fast ship" speed="7.38" length="11.13" shape="2304.47,1146.18 2304.29,1149.10 2305.11,1151.48 2306.94,1153.31 2309.76,1154.60"/>
    </edge>
    <edge id=":2282739510_9" function="internal">
        <lane id=":2282739510_9_0" index="0" disallow="tram rail_urban rail rail_electric rail_fast ship" speed="27.78" length="15.97" shape="2304.47,1146.18 2303.79,1150.02 2303.31,1154.07 2303.05,1158.15 2303.00,1162.05"/>
    </edge>
    <edge id=":2282739510_10" function="internal">
        <lane id=":2282739510_10_0" index="0" disallow="tram rail_urban rail rail_electric rail_fast ship" speed="7.66" length="5.57" shape="2304.47,1146.18 2303.00,1150.20 2302.07,1151.09"/>
    </edge>
    <edge id=":2282739510_11" function="internal">
        <lane id=":2282739510_11_0" index="0" disallow="tram rail_urban rail rail_electric rail_fast ship" speed="3.65" length="2.34" shape="2304.47,1146.18 2303.44,1147.19 2302.57,1147.41"/>
    </edge>
    <edge id=":2282739510_18" function="internal">
        <lane id=":2282739510_18_0" index="0" disallow="tram rail_urban rail rail_electric rail_fast ship" speed="7.66" length="9.54" shape="2302.07,1151.09 2300.64,1152.47 2297.42,1153.01 2293.31,1151.80"/>
    </edge>
    <edge id=":2282739510_19" function="internal">
        <lane id=":2282739510_19_0" index="0" disallow="tram rail_urban rail rail_electric rail_fast ship" speed="3.65" length="2.34" shape="2302.57,1147.41 2301.87,1146.85 2301.34,1145.51"/>
    </edge>
    <edge id=":2282739510_12" function="internal">
        <lane id=":2282739510_12_0" index="0" disallow="tram rail_urban rail rail_electric rail_fast ship" speed="6.08" length="9.06" shape="2294.64,1148.89 2297.11,1149.61 2299.04,1149.29 2300.45,1147.93 2301.34,1145.51"/>
    </edge>
    <edge id=":2282739510_13" function="internal">
        <lane id=":2282739510_13_0" index="0" disallow="tram rail_urban rail rail_electric rail_fast ship" speed="18.06" length="16.17" shape="2294.64,1148.89 2298.25,1150.45 2302.11,1151.97 2306.02,1153.38 2309.76,1154.60"/>
    </edge>
    <edge id=":2282739510_14" function="internal">
        <lane id=":2282739510_14_0" index="0" disallow="tram rail_urban rail rail_electric rail_fast ship" speed="10.48" length="16.51" shape="2294.64,1148.89 2298.23,1151.11 2300.82,1154.05 2302.41,1157.69 2303.00,1162.05"/>
    </edge>
    <edge id=":2282739510_15" function="internal">
        <lane id=":2282739510_15_0" index="0" disallow="tram rail_urban rail rail_electric rail_fast ship" speed="3.65" length="4.67" shape="2294.64,1148.89 2295.40,1150.11 2295.43,1151.01 2294.73,1151.57 2293.31,1151.80"/>
    </edge>
    <edge id=":2282739514_0" function="internal">
        <lane id=":2282739514_0_0" index="0" disallow="tram rail_urban rail rail_electric rail_fast ship" speed="9.04" length="11.10" shape="2354.21,1070.68 2350.89,1071.01 2348.18,1071.86 2346.08,1073.23 2344.59,1075.13"/>
    </edge>
    <edge id=":2282739514_1" function="internal">
        <lane id=":2282739514_1_0" index="0" disallow="tram rail_urban rail rail_electric rail_fast ship" speed="7.61" length="15.31" shape="2354.21,1070.68 2349.88,1070.14 2347.14,1068.32 2346.00,1065.24 2346.46,1060.90"/>
    </edge>
    <edge id=":2282739514_2" function="internal">
        <lane id=":2282739514_2_0" index="0" disallow="tram rail_urban rail rail_electric rail_fast ship" speed="3.65" length="4.67" shape="2354.21,1070.68 2353.00,1069.90 2352.59,1069.11 2352.97,1068.30 2354.16,1067.48"/>
    </edge>
    <edge id=":2282739514_3" function="internal">
        <lane id=":2282739514_3_0" index="0" disallow="tram rail_urban rail rail_electric rail_fast ship" speed="6.01" length="9.08" shape="2349.56,1061.68 2349.29,1064.26 2349.96,1066.09 2351.59,1067.16 2354.16,1067.48"/>
    </edge>
    <edge id=":2282739514_4" function="internal">
        <lane id=":2282739514_4_0" index="0" disallow="tram rail_urban rail rail_electric rail_fast ship" speed="27.78" length="14.38" shape="2349.56,1061.68 2348.61,1065.21 2347.52,1068.58 2346.21,1071.86 2344.59,1075.13"/>
    </edge>
    <edge id=":2282739514_5" function="internal">
        <lane id=":2282739514_5_0" index="0" disallow="tram rail_urban rail rail_electric rail_fast ship" speed="3.65" length="2.34" shape="2349.56,1061.68 2348.49,1062.65 2347.62,1062.84"/>
    </edge>
    <edge id=":2282739514_9" function="internal">
        <lane id=":2282739514_9_0" index="0" disallow="tram rail_urban rail rail_electric rail_fast ship" speed="3.65" length="2.34" shape="2347.62,1062.84 2346.94,1062.26 2346.46,1060.90"/>
    </edge>
    <edge id=":2282739514_6" function="internal">
        <lane id=":2282739514_6_0" index="0" disallow="tram rail_urban rail rail_electric rail_fast ship" speed="27.78" length="13.57" shape="2341.78,1073.59 2343.36,1070.44 2344.56,1067.42 2345.55,1064.31 2346.46,1060.90"/>
    </edge>
    <edge id=":2282739514_7" function="internal">
        <lane id=":2282739514_7_0" index="0" disallow="tram rail_urban rail rail_electric rail_fast ship" speed="10.25" length="5.07" shape="2341.78,1073.59 2343.78,1070.98 2345.24,1069.97"/>
    </edge>
    <edge id=":2282739514_8" function="internal">
        <lane id=":2282739514_8_0" index="0" disallow="tram rail_urban rail rail_electric rail_fast ship" speed="3.65" length="2.34" shape="2341.78,1073.59 2343.06,1072.92 2343.96,1072.96"/>
    </edge>
    <edge id=":2282739514_10" function="internal">
        <lane id=":2282739514_10_0" index="0" disallow="tram rail_urban rail rail_electric rail_fast ship" speed="10.25" length="9.41" shape="2345.24,1069.97 2346.51,1069.09 2349.97,1067.92 2354.16,1067.48"/>
    </edge>
    <edge id=":2282739514_11" function="internal">
        <lane id=":2282739514_11_0" index="0" disallow="tram rail_urban rail rail_electric rail_fast ship" speed="3.65" length="2.34" shape="2343.96,1072.96 2344.46,1073.69 2344.59,1075.13"/>
    </edge>
    <edge id=":2283332321_0" function="internal">
        <lane id=":2283332321_0_0" index="0" disallow="tram rail_urban rail rail_electric rail_fast ship" speed="27.78" length="0.29" shape="902.93,2890.54 902.94,2890.50 902.94,2890.47 902.94,2890.44 902.94,2890.40"/>
        <lane id=":2283332321_0_1" index="1" disallow="tram rail_urban rail rail_electric rail_fast ship" speed="27.78" length="0.29" shape="906.12,2890.85 906.13,2890.73 906.14,2890.64 906.14,2890.55 906.14,2890.43"/>
    </edge>
    <edge id=":3640014267_0" function="internal">
        <lane id=":3640014267_0_0" index="0" disallow="tram rail_urban rail rail_electric rail_fast ship" speed="27.78" length="7.87" shape="1155.23,1152.62 1149.16,1157.62"/>
        <lane id=":3640014267_0_1" index="1" disallow="tram rail_urban rail rail_electric rail_fast ship" speed="27.78" length="7.87" shape="1153.19,1150.15 1147.13,1155.15"/>
    </edge>
    <edge id=":3640014267_2" function="internal">
        <lane id=":3640014267_2_0" index="0" disallow="tram rail_urban rail rail_electric rail_fast ship" speed="10.55" length="7.75" shape="1149.71,1148.14 1149.36,1150.44 1149.19,1152.12 1148.63,1153.57 1147.13,1155.15"/>
    </edge>
    <edge id=":3640014275_0" function="internal">
        <lane id=":3640014275_0_0" index="0" disallow="tram rail_urban rail rail_electric rail_fast ship" speed="5.82" length="10.44" shape="1156.86,1121.87 1153.60,1121.09 1151.58,1121.59 1150.81,1123.36 1151.29,1126.41"/>
    </edge>
    <edge id=":3640014275_1" function="internal">
        <lane id=":3640014275_1_0" index="0" disallow="tram rail_urban rail rail_electric rail_fast ship" speed="13.89" length="10.63" shape="1156.86,1121.87 1153.82,1121.20 1151.44,1121.15 1149.26,1120.76 1146.84,1119.10"/>
    </edge>
    <edge id=":3640014275_2" function="internal">
        <lane id=":3640014275_2_0" index="0" disallow="tram rail_urban rail rail_electric rail_fast ship" speed="13.89" length="10.19" shape="1149.07,1116.80 1150.71,1119.08 1150.98,1121.12 1150.84,1123.39 1151.29,1126.41"/>
    </edge>
    <edge id=":3640014275_3" function="internal">
        <lane id=":3640014275_3_0" index="0" disallow="tram rail_urban rail rail_electric rail_fast ship" speed="3.65" length="2.03" shape="1149.07,1116.80 1149.37,1118.21 1149.20,1118.77"/>
    </edge>
    <edge id=":3640014275_4" function="internal">
        <lane id=":3640014275_4_0" index="0" disallow="tram rail_urban rail rail_electric rail_fast ship" speed="3.65" length="2.64" shape="1149.20,1118.77 1149.11,1119.06 1148.26,1119.36 1146.84,1119.10"/>
    </edge>
    <edge id=":3640014277_0" function="internal">
        <lane id=":3640014277_0_0" index="0" disallow="tram rail_urban rail rail_electric rail_fast ship" speed="13.89" length="2.96" shape="1134.70,1107.38 1132.54,1105.36"/>
    </edge>
    <edge id=":3640014277_1" function="internal">
        <lane id=":3640014277_1_0" index="0" disallow="tram rail_urban rail rail_electric rail_fast ship" speed="3.65" length="2.34" shape="1134.70,1107.38 1134.39,1105.97 1134.66,1105.12"/>
    </edge>
    <edge id=":3640014277_4" function="internal">
        <lane id=":3640014277_4_0" index="0" disallow="tram rail_urban rail rail_electric rail_fast ship" speed="3.65" length="2.34" shape="1134.66,1105.12 1135.50,1104.82 1136.92,1105.08"/>
    </edge>
    <edge id=":3640014277_2" function="internal">
        <lane id=":3640014277_2_0" index="0" disallow="tram rail_urban rail rail_electric rail_fast ship" speed="13.89" length="3.12" shape="1134.64,1102.95 1136.92,1105.08"/>
    </edge>
    <edge id=":3640014277_3" function="internal">
        <lane id=":3640014277_3_0" index="0" disallow="tram rail_urban rail rail_electric rail_fast ship" speed="3.65" length="2.34" shape="1134.64,1102.95 1135.02,1104.34 1134.79,1105.21"/>
    </edge>
    <edge id=":3640014277_5" function="internal">
        <lane id=":3640014277_5_0" index="0" disallow="tram rail_urban rail rail_electric rail_fast ship" speed="3.65" length="2.34" shape="1134.79,1105.21 1133.97,1105.55 1132.54,1105.36"/>
    </edge>
    <edge id=":3640014281_0" function="internal">
        <lane id=":3640014281_0_0" index="0" disallow="tram rail_urban rail rail_electric rail_fast ship" speed="13.89" length="8.05" shape="1121.56,1097.52 1114.76,1093.22"/>
    </edge>