<?xml version="1.0" encoding="UTF-8"?>
<!-- generated on 2021-03-04 19:15:29.464442 by $Id$ v1_8_0+0044-4820708f3d
  options: -n map-bsd2.net.xml -r route_maps-bsd21.rou.xml -e 500 -l
-->
<routes xmlns:xsi="http://www.w3.org/2001/XMLSchema-instance" xsi:noNamespaceSchemaLocation="http://sumo.dlr.de/xsd/routes_file.xsd">
    <trip id="0" depart="0.00" from="479605457#0" to="-359408229#2"/>
    <trip id="1" depart="1.00" from="-697060681" to="-56462935#1"/>
    <trip id="2" depart="2.00" from="562430406#1" to="552423761#3"/>
    <trip id="3" depart="3.00" from="757457244#3" to="-362999573#7"/>
    <trip id="4" depart="4.00" from="359245322#11" to="-359408236#5"/>
    <trip id="5" depart="5.00" from="-563175089#1" to="362999573#7"/>
    <trip id="6" depart="6.00" from="-359408255" to="-562549604#0"/>
    <trip id="7" depart="7.00" from="479605474#1" to="363002248#0"/>
    <trip id="8" depart="8.00" from="-563587565" to="398181550#5"/>
    <trip id="9" depart="9.00" from="60863226#2" to="-264106317#0"/>
    <trip id="10" depart="10.00" from="60863226#0" to="55678885#3"/>
    <trip id="11" depart="11.00" from="-77779326" to="-480753663"/>
    <trip id="12" depart="12.00" from="77777846#0" to="-842921423"/>
    <trip id="13" depart="13.00" from="-362999574" to="-362999587#0"/>
    <trip id="14" depart="14.00" from="739462179#0" to="403676107"/>
    <trip id="15" depart="15.00" from="60863226#1" to="562046787"/>
    <trip id="16" depart="16.00" from="362999587#0" to="77779203"/>
    <trip id="17" depart="17.00" from="154148014#0" to="392657307#1"/>
    <trip id="18" depart="18.00" from="697060685#0" to="479605457#1"/>
    <trip id="19" depart="19.00" from="754707682#1" to="398041366#5"/>
    <trip id="20" depart="20.00" from="552423763#1" to="-359408301#1"/>
    <trip id="21" depart="21.00" from="-56462935#1" to="-77777204#3"/>
    <trip id="22" depart="22.00" from="-362999571" to="-56463040#0"/>
    <trip id="23" depart="23.00" from="-362999587#5" to="-697072223"/>
    <trip id="24" depart="24.00" from="470465976" to="264106329"/>
    <trip id="25" depart="25.00" from="154148013#2" to="-563175089#1"/>
    <trip id="26" depart="26.00" from="-675107652#2" to="77777386#0"/>
    <trip id="27" depart="27.00" from="479605474#0" to="46560873#0"/>
    <trip id="28" depart="28.00" from="-536702868" to="562046305#4"/>
    <trip id="29" depart="29.00" from="-530727619#0" to="359245322#14"/>
    <trip id="30" depart="30.00" from="813038568#0" to="52520671#2"/>
    <trip id="31" depart="31.00" from="363002238#5" to="554170826#3"/>
    <trip id="32" depart="32.00" from="697063415#1" to="56463029#2"/>
    <trip id="33" depart="33.00" from="-56462935#1" to="-359408255"/>
    <trip id="34" depart="34.00" from="-77777498#2" to="-697060685#3"/>
    <trip id="35" depart="35.00" from="-562631109" to="77777461#4"/>
    <trip id="36" depart="36.00" from="756050840#0" to="-77778279"/>
    <trip id="37" depart="37.00" from="479612027#0" to="359246022"/>
    <trip id="38" depart="38.00" from="766136205#4" to="359408303#2"/>
    <trip id="39" depart="39.00" from="-588829929" to="-587915375"/>
    <trip id="40" depart="40.00" from="363002246#2" to="-697060685#0"/>
    <trip id="41" depart="41.00" from="396051491#4" to="760609832#2"/>
    <trip id="42" depart="42.00" from="264106317#0" to="-56462935#0"/>
    <trip id="43" depart="43.00" from="838496375" to="362999575"/>
    <trip id="44" depart="44.00" from="-362999573#6" to="-359408302#1"/>
    <trip id="45" depart="45.00" from="-362999593" to="479605474#2"/>
    <trip id="46" depart="46.00" from="56463152#0" to="359408236#0"/>
    <trip id="47" depart="47.00" from="-362995551#0" to="359245322#18"/>
    <trip id="48" depart="48.00" from="833506428" to="363002237#7"/>
    <trip id="49" depart="49.00" from="77778564" to="739462179#1"/>
    <trip id="50" depart="50.00" from="-359244585" to="562021794#3"/>
    <trip id="51" depart="51.00" from="542186394" to="363002244"/>
    <trip id="52" depart="52.00" from="-675107652#0" to="52520671#4"/>
    <trip id="53" depart="53.00" from="-363002244" to="359408265"/>
    <trip id="54" depart="54.00" from="359247813#5" to="77778140"/>
    <trip id="55" depart="55.00" from="756050840#0" to="-697060685#0"/>
    <trip id="56" depart="56.00" from="362995551#2" to="-552423759#2"/>
    <trip id="57" depart="57.00" from="766136205#1" to="756050840#2"/>
    <trip id="58" depart="58.00" from="-77777084#3" to="52520671#2"/>
    <trip id="59" depart="59.00" from="403676101#1" to="-479605474#0"/>
    <trip id="60" depart="60.00" from="563587566#2" to="363002246#2"/>
    <trip id="61" depart="61.00" from="56463029#8" to="363002238#0"/>
    <trip id="62" depart="62.00" from="-168328152#1" to="-77779287"/>
    <trip id="63" depart="63.00" from="-359408229#2" to="77777084#4"/>
    <trip id="64" depart="64.00" from="756050840#2" to="675107653#3"/>
    <trip id="65" depart="65.00" from="-77777386#0" to="-359409617#2"/>
    <trip id="66" depart="66.00" from="756050840#2" to="77777846#1"/>
    <trip id="67" depart="67.00" from="-362999573#1" to="362995556#1"/>
    <trip id="68" depart="68.00" from="-362995555#2" to="563175089#1"/>
    <trip id="69" depart="69.00" from="564196757" to="-398181537#0"/>
    <trip id="70" depart="70.00" from="359408279#2" to="392657305#1"/>
    <trip id="71" depart="71.00" from="-588829929" to="756050840#2"/>
    <trip id="72" depart="72.00" from="359245322#16" to="-563587565"/>
    <trip id="73" depart="73.00" from="362999587#5" to="562046789"/>
    <trip id="74" depart="74.00" from="-562430274#2" to="-77778185"/>
    <trip id="75" depart="75.00" from="833506427#1" to="530727619#0"/>
    <trip id="76" depart="76.00" from="359246029#2" to="362999590#2"/>
    <trip id="77" depart="77.00" from="-392657305#1" to="-56462935#2"/>
    <trip id="78" depart="78.00" from="-77779287" to="398181550#4"/>
    <trip id="79" depart="79.00" from="-56462935#2" to="-56462935#0"/>
    <trip id="80" depart="80.00" from="-362995555#3" to="479612027#0"/>
    <trip id="81" depart="81.00" from="-56462935#1" to="766136202"/>
    <trip id="82" depart="82.00" from="754707680#1" to="-362995557#0"/>
    <trip id="83" depart="83.00" from="-56463029#9" to="552423758#4"/>
    <trip id="84" depart="84.00" from="-562647812" to="-403676105#0"/>
    <trip id="85" depart="85.00" from="77777084#0" to="398041363#6"/>
    <trip id="86" depart="86.00" from="359408276#1" to="56463046#1"/>
    <trip id="87" depart="87.00" from="60863226#1" to="-562046305#4"/>
    <trip id="88" depart="88.00" from="-362999576" to="359408258#0"/>
    <trip id="89" depart="89.00" from="359245322#17" to="359409617#4"/>
    <trip id="90" depart="90.00" from="562046305#0" to="552423760"/>
    <trip id="91" depart="91.00" from="77779287" to="-362999587#3"/>
    <trip id="92" depart="92.00" from="264106317#1" to="154148013#1"/>
    <trip id="93" depart="93.00" from="754707682#1" to="-588529262"/>
    <trip id="94" depart="94.00" from="-552423763#2" to="359408298#3"/>
    <trip id="95" depart="95.00" from="359245322#11" to="-697072227"/>
    <trip id="96" depart="96.00" from="-56463112#0" to="776405490#0"/>
    <trip id="97" depart="97.00" from="359247810#1" to="739462179#2"/>
    <trip id="98" depart="98.00" from="363002237#7" to="-359408305#0"/>
    <trip id="99" depart="99.00" from="843161225#0" to="697060677#0"/>
    <trip id="100" depart="100.00" from="77778279" to="77777084#2"/>
    <trip id="101" depart="101.00" from="739462179#0" to="-52520682#0"/>
    <trip id="102" depart="102.00" from="359408305#0" to="-563587566#2"/>
    <trip id="103" depart="103.00" from="264106317#0" to="-359409617#4"/>
    <trip id="104" depart="104.00" from="154148014#0" to="815159183#0"/>
    <trip id="105" depart="105.00" from="-588829929" to="56463046#0"/>
    <trip id="106" depart="106.00" from="359247813#9" to="359408236#0"/>
    <trip id="107" depart="107.00" from="77777846#0" to="833506427#2"/>
    <trip id="108" depart="108.00" from="363002238#4" to="562021790#0"/>
    <trip id="109" depart="109.00" from="-52520671#2" to="-77777461#1"/>
    <trip id="110" depart="110.00" from="77778245" to="398041367#1"/>
    <trip id="111" depart="111.00" from="362999590#2" to="562631076#0"/>
    <trip id="112" depart="112.00" from="-359409603" to="398181537#1"/>
    <trip id="113" depart="113.00" from="362995552#1" to="697063414#0"/>
    <trip id="114" depart="114.00" from="-52520671#5" to="77778564"/>
    <trip id="115" depart="115.00" from="-362999571" to="-552423763#0"/>
    <trip id="116" depart="116.00" from="398041366#1" to="552423761#0"/>
    <trip id="117" depart="117.00" from="-56463029#6" to="-392657307#5"/>
    <trip id="118" depart="118.00" from="757457244#2" to="-587915375"/>
    <trip id="119" depart="119.00" from="398041366#1" to="479605461#0"/>
    <trip id="120" depart="120.00" from="359245321" to="398181537#1"/>
    <trip id="121" depart="121.00" from="362999573#2" to="77777204#3"/>
    <trip id="122" depart="122.00" from="-562549604#6" to="560361514#1"/>
    <trip id="123" depart="123.00" from="-56463040#0" to="359246022"/>
    <trip id="124" depart="124.00" from="530727619#0" to="-77777498#2"/>
    <trip id="125" depart="125.00" from="-77777498#2" to="562631091"/>
    <trip id="126" depart="126.00" from="-362995556#1" to="359408303#2"/>
    <trip id="127" depart="127.00" from="838728960" to="833506428"/>
    <trip id="128" depart="128.00" from="-362995556#1" to="-563587566#1"/>
    <trip id="129" depart="129.00" from="-588829929" to="77777204#1"/>
    <trip id="130" depart="130.00" from="756050840#2" to="757373595#0"/>
    <trip id="131" depart="131.00" from="154148013#2" to="-52520671#2"/>
    <trip id="132" depart="132.00" from="697060685#3" to="560361514#1"/>
    <trip id="133" depart="133.00" from="403676105#0" to="822104974#1"/>
    <trip id="134" depart="134.00" from="479612027#0" to="-264106317#1"/>
    <trip id="135" depart="135.00" from="60863228#3" to="-77777498#2"/>
    <trip id="136" depart="136.00" from="52520671#5" to="77777386#2"/>
    <trip id="137" depart="137.00" from="-398181537#1" to="-363795522#4"/>
    <trip id="138" depart="138.00" from="-362999591" to="392657307#5"/>
    <trip id="139" depart="139.00" from="-697060676" to="46560873#0"/>
    <trip id="140" depart="140.00" from="55678885#9" to="-562631110"/>
    <trip id="141" depart="141.00" from="470465976" to="-697060685#1"/>
    <trip id="142" depart="142.00" from="359409603" to="766136202"/>
    <trip id="143" depart="143.00" from="697072223" to="-362999575"/>
    <trip id="144" depart="144.00" from="359245322#17" to="-697063415#3"/>
    <trip id="145" depart="145.00" from="-264106317#3" to="56462935#1"/>
    <trip id="146" depart="146.00" from="470465976" to="-697060684#1"/>
    <trip id="147" depart="147.00" from="562430406#6" to="392657307#0"/>
    <trip id="148" depart="148.00" from="359245322#4" to="-264106317#3"/>
    <trip id="149" depart="149.00" from="-362995557#1" to="757457244#2"/>
    <trip id="150" depart="150.00" from="760609832#5" to="363002248#0"/>
    <trip id="151" depart="151.00" from="697060685#3" to="398181537#0"/>
    <trip id="152" depart="152.00" from="-479605474#1" to="-396051490#5"/>
    <trip id="153" depart="153.00" from="-77777386#10" to="760609832#3"/>
    <trip id="154" depart="154.00" from="588529254#1" to="738412585"/>
    <trip id="155" depart="155.00" from="760477091#0" to="-563175089#1"/>
    <trip id="156" depart="156.00" from="-56463112#0" to="-362999590#2"/>
    <trip id="157" depart="157.00" from="56463029#9" to="757457244#2"/>
    <trip id="158" depart="158.00" from="264106329" to="479605462"/>
    <trip id="159" depart="159.00" from="-52520671#2" to="77777084#4"/>
    <trip id="160" depart="160.00" from="756043919#2" to="77779287"/>
    <trip id="161" depart="161.00" from="60863226#6" to="757373597#0"/>
    <trip id="162" depart="162.00" from="-359408236#5" to="562430406#3"/>
    <trip id="163" depart="163.00" from="-77779019#5" to="77777084#4"/>
    <trip id="164" depart="164.00" from="588529264" to="754707680#1"/>
    <trip id="165" depart="165.00" from="60863226#6" to="-697060685#3"/>
    <trip id="166" depart="166.00" from="56463095#0" to="-363002244"/>
    <trip id="167" depart="167.00" from="756050840#0" to="697072223"/>
    <trip id="168" depart="168.00" from="-563587566#1" to="60863226#1"/>
    <trip id="169" depart="169.00" from="359408236#0" to="-77778100#1"/>
    <trip id="170" depart="170.00" from="588529254#0" to="-56463029#2"/>
    <trip id="171" depart="171.00" from="-359408236#5" to="-562430274#0"/>
    <trip id="172" depart="172.00" from="-77778279" to="754707681#0"/>
    <trip id="173" depart="173.00" from="77778185" to="-754709428#1"/>
    <trip id="174" depart="174.00" from="479605459" to="359246029#5"/>
    <trip id="175" depart="175.00" from="77779019#6" to="363002244"/>
    <trip id="176" depart="176.00" from="77777084#3" to="-363795522#4"/>
    <trip id="177" depart="177.00" from="77778564" to="-552423759#2"/>
    <trip id="178" depart="178.00" from="77778100#6" to="-697060685#1"/>
    <trip id="179" depart="179.00" from="-362999593" to="359408265"/>
    <trip id="180" depart="180.00" from="562021795#4" to="-77778245"/>
    <trip id="181" depart="181.00" from="398181550#2" to="362999576"/>
    <trip id="182" depart="182.00" from="154148014#0" to="398041366#4"/>
    <trip id="183" depart="183.00" from="-56463214#1" to="560361514#1"/>
    <trip id="184" depart="184.00" from="-168328152#4" to="77777084#1"/>
    <trip id="185" depart="185.00" from="362999587#3" to="562021794#2"/>
    <trip id="186" depart="186.00" from="562430406#6" to="552423759#2"/>
    <trip id="187" depart="187.00" from="154148013#1" to="-362995556#1"/>
    <trip id="188" depart="188.00" from="52520671#6" to="-829040990"/>
    <trip id="189" depart="189.00" from="-77777498#0" to="697060686#1"/>
    <trip id="190" depart="190.00" from="561425370" to="-77777498#2"/>
    <trip id="191" depart="191.00" from="-77777386#2" to="359247810#8"/>
    <trip id="192" depart="192.00" from="264106317#0" to="-77777386#8"/>
    <trip id="193" depart="193.00" from="-396051490#1" to="359408229#1"/>
    <trip id="194" depart="194.00" from="77777084#4" to="552423761#4"/>
    <trip id="195" depart="195.00" from="760609832#3" to="46560873#0"/>
    <trip id="196" depart="196.00" from="-77777084#4" to="363795522#5"/>
    <trip id="197" depart="197.00" from="-168328152#0" to="-77777204#0"/>
    <trip id="198" depart="198.00" from="359245322#5" to="398041367#1"/>
    <trip id="199" depart="199.00" from="479612027#0" to="359409617#0"/>
    <trip id="200" depart="200.00" from="359247810#1" to="-563587566#2"/>
    <trip id="201" depart="201.00" from="359408279#0" to="766136199#1"/>
    <trip id="202" depart="202.00" from="588529254#1" to="-530727619#0"/>
    <trip id="203" depart="203.00" from="-362999573#0" to="362999588#1"/>
    <trip id="204" depart="204.00" from="470465976" to="-838496375"/>
    <trip id="205" depart="205.00" from="60863228#4" to="562631091"/>
    <trip id="206" depart="206.00" from="536702868" to="-56462935#2"/>
    <trip id="207" depart="207.00" from="-562430274#1" to="-359408229#2"/>
    <trip id="208" depart="208.00" from="-56463069#1" to="362995551#0"/>
    <trip id="209" depart="209.00" from="739462179#0" to="-362995558#1"/>
    <trip id="210" depart="210.00" from="359244580#1" to="479605475#2"/>
    <trip id="211" depart="211.00" from="-562046305#4" to="55678885#13"/>
    <trip id="212" depart="212.00" from="362347492#0" to="-56463152#0"/>
    <trip id="213" depart="213.00" from="479612027#0" to="-264106317#0"/>
    <trip id="214" depart="214.00" from="562631077#1" to="56462935#1"/>
    <trip id="215" depart="215.00" from="-362999591" to="359408236#4"/>
    <trip id="216" depart="216.00" from="-552423757#2" to="77778245"/>
    <trip id="217" depart="217.00" from="362999571" to="-359408303#2"/>
    <trip id="218" depart="218.00" from="-56463112#0" to="697060686#1"/>
    <trip id="219" depart="219.00" from="359408229#0" to="588529254#3"/>
    <trip id="220" depart="220.00" from="530727619#0" to="829040990"/>
    <trip id="221" depart="221.00" from="398041366#2" to="77778100#1"/>
    <trip id="222" depart="222.00" from="757457244#2" to="46560873#0"/>
    <trip id="223" depart="223.00" from="561425368" to="362999573#7"/>
    <trip id="224" depart="224.00" from="697060685#1" to="363795522#4"/>
    <trip id="225" depart="225.00" from="760477091#0" to="562549604#6"/>
    <trip id="226" depart="226.00" from="359408279#1" to="-697060681"/>
    <trip id="227" depart="227.00" from="-56463069#2" to="52520671#1"/>
    <trip id="228" depart="228.00" from="564196757" to="362999593"/>
    <trip id="229" depart="229.00" from="470465976" to="-697063415#1"/>
    <trip id="230" depart="230.00" from="-362995558#4" to="-77777204#0"/>
    <trip id="231" depart="231.00" from="-697060675#1" to="-77779019#6"/>
    <trip id="232" depart="232.00" from="362999588#0" to="-470465976"/>
    <trip id="233" depart="233.00" from="-56462935#2" to="554170826#7"/>
    <trip id="234" depart="234.00" from="554170826#2" to="-362995553#1"/>
    <trip id="235" depart="235.00" from="264106336" to="363002247#1"/>
    <trip id="236" depart="236.00" from="359244580#1" to="-563175088#0"/>
    <trip id="237" depart="237.00" from="359245322#0" to="766136201"/>
    <trip id="238" depart="238.00" from="396051491#3" to="55678885#12"/>
    <trip id="239" depart="239.00" from="739462179#1" to="563587566#2"/>
    <trip id="240" depart="240.00" from="154148014#0" to="-264106317#0"/>
    <trip id="241" depart="241.00" from="-833506422" to="562631115"/>
    <trip id="242" depart="242.00" from="739462179#0" to="77778100#7"/>
    <trip id="243" depart="243.00" from="359245321" to="562631073#0"/>
    <trip id="244" depart="244.00" from="362999591" to="403676107"/>
    <trip id="245" depart="245.00" from="-563587565" to="-56462935#0"/>
    <trip id="246" depart="246.00" from="359246022" to="-359408236#4"/>
    <trip id="247" depart="247.00" from="-77779287" to="552423761#4"/>
    <trip id="248" depart="248.00" from="264106317#3" to="-52520682#0"/>
    <trip id="249" depart="249.00" from="359408251" to="-396051490#5"/>
    <trip id="250" depart="250.00" from="46560873#0" to="-359408236#3"/>
    <trip id="251" depart="251.00" from="168328149#7" to="396051491#3"/>
    <trip id="252" depart="252.00" from="-359408258#0" to="52520671#5"/>
    <trip id="253" depart="253.00" from="-403676102#0" to="359409603"/>
    <trip id="254" depart="254.00" from="-359408298#4" to="359245322#13"/>
    <trip id="255" depart="255.00" from="-562631110" to="-77779412"/>
    <trip id="256" depart="256.00" from="563587566#1" to="359245322#13"/>
    <trip id="257" depart="257.00" from="562631111#1" to="675107653#3"/>
    <trip id="258" depart="258.00" from="-56463112#2" to="-362999573#2"/>
    <trip id="259" depart="259.00" from="-359408229#2" to="363002246#2"/>
    <trip id="260" depart="260.00" from="907596595" to="154148014#2"/>
    <trip id="261" depart="261.00" from="479605475#5" to="56463040#0"/>
    <trip id="262" depart="262.00" from="479612027#0" to="562631151"/>
    <trip id="263" depart="263.00" from="77777386#4" to="-562549604#1"/>
    <trip id="264" depart="264.00" from="-359408236#0" to="-479605474#0"/>
    <trip id="265" depart="265.00" from="-396051490#0" to="552423759#0"/>
    <trip id="266" depart="266.00" from="363002247#1" to="-56462935#0"/>
    <trip id="267" depart="267.00" from="552423761#0" to="563587634"/>
    <trip id="268" depart="268.00" from="-530727619#1" to="46560873#0"/>
    <trip id="269" depart="269.00" from="562549604#5" to="-363795522#1"/>
    <trip id="270" depart="270.00" from="60863228#4" to="77778889#1"/>
    <trip id="271" depart="271.00" from="-362999593" to="-359408236#0"/>
    <trip id="272" depart="272.00" from="-77777461#1" to="552423761#4"/>
    <trip id="273" depart="273.00" from="77777846#2" to="359246029#0"/>
    <trip id="274" depart="274.00" from="55678885#3" to="-362999571"/>
    <trip id="275" depart="275.00" from="542186394" to="479605474#2"/>
    <trip id="276" depart="276.00" from="-362999588#1" to="56462935#2"/>
    <trip id="277" depart="277.00" from="739462179#0" to="403676105#2"/>
    <trip id="278" depart="278.00" from="-392657305#1" to="813038570"/>
    <trip id="279" depart="279.00" from="56463046#0" to="154148013#2"/>
    <trip id="280" depart="280.00" from="359245322#5" to="359244580#1"/>
    <trip id="281" depart="281.00" from="362995555#1" to="154148013#1"/>
    <trip id="282" depart="282.00" from="739462179#0" to="60863226#7"/>
    <trip id="283" depart="283.00" from="-362999590#4" to="77778564"/>
    <trip id="284" depart="284.00" from="470465976" to="60863228#4"/>
    <trip id="285" depart="285.00" from="554170826#3" to="359408265"/>
    <trip id="286" depart="286.00" from="562430406#0" to="77778889#1"/>
    <trip id="287" depart="287.00" from="-675908739" to="588552947"/>
    <trip id="288" depart="288.00" from="362999587#0" to="362995555#3"/>
    <trip id="289" depart="289.00" from="359246022" to="562430272"/>
    <trip id="290" depart="290.00" from="-675107653#3" to="697063414#0"/>
    <trip id="291" depart="291.00" from="697060685#1" to="-362999573#6"/>
    <trip id="292" depart="292.00" from="756050840#2" to="-56463152#0"/>
    <trip id="293" depart="293.00" from="359408236#5" to="46560873#0"/>
    <trip id="294" depart="294.00" from="154148014#0" to="-359408236#4"/>
    <trip id="295" depart="295.00" from="739462179#0" to="-552423761#1"/>
    <trip id="296" depart="296.00" from="-562631115" to="56463214#1"/>
    <trip id="297" depart="297.00" from="-77779326" to="757373595#1"/>
    <trip id="298" depart="298.00" from="552423761#3" to="-697063415#2"/>
    <trip id="299" depart="299.00" from="-359244580#1" to="77777846#5"/>
    <trip id="300" depart="300.00" from="-362999573#1" to="562021794#2"/>
    <trip id="301" depart="301.00" from="359409603" to="562652290"/>
    <trip id="302" depart="302.00" from="542186394" to="52520682#0"/>
    <trip id="303" depart="303.00" from="359409605" to="56463112#0"/>
    <trip id="304" depart="304.00" from="-362999574" to="-56462935#1"/>
    <trip id="305" depart="305.00" from="552423756#2" to="-77778100#1"/>
    <trip id="306" depart="306.00" from="396051490#4" to="362347492#5"/>
    <trip id="307" depart="307.00" from="362999575" to="359408236#4"/>
    <trip id="308" depart="308.00" from="562549604#0" to="-833506420"/>
    <trip id="309" depart="309.00" from="552423761#4" to="-697063414#0"/>
    <trip id="310" depart="310.00" from="-56463112#2" to="-396049395"/>
    <trip id="311" depart="311.00" from="-562046305#0" to="-392657307#5"/>
    <trip id="312" depart="312.00" from="362999587#0" to="563175089#2"/>
    <trip id="313" depart="313.00" from="-552423761#3" to="-564196757"/>
    <trip id="314" depart="314.00" from="359408303#0" to="562021795#1"/>
    <trip id="315" depart="315.00" from="77778889#2" to="363002237#2"/>
    <trip id="316" depart="316.00" from="-697060685#3" to="-362999588#0"/>
    <trip id="317" depart="317.00" from="-562046305#4" to="-56463029#10"/>
    <trip id="318" depart="318.00" from="-552423759#2" to="-359244580#1"/>
    <trip id="319" depart="319.00" from="362999576" to="-697063415#0"/>
    <trip id="320" depart="320.00" from="77778889#1" to="392657307#5"/>
    <trip id="321" depart="321.00" from="552423759#2" to="-396051490#4"/>
    <trip id="322" depart="322.00" from="756050840#0" to="362995558#5"/>
    <trip id="323" depart="323.00" from="756050840#0" to="398041365#5"/>
    <trip id="324" depart="324.00" from="359408258#1" to="359408278"/>
    <trip id="325" depart="325.00" from="-552423761#0" to="-359408305#3"/>
    <trip id="326" depart="326.00" from="77777084#4" to="362995552#1"/>
    <trip id="327" depart="327.00" from="675107653#0" to="359246030#1"/>
    <trip id="328" depart="328.00" from="-362995557#0" to="479605474#2"/>
    <trip id="329" depart="329.00" from="-359408303#0" to="-479605461#1"/>
    <trip id="330" depart="330.00" from="363002246#3" to="-77777880"/>
    <trip id="331" depart="331.00" from="833506425" to="-392657307#1"/>
    <trip id="332" depart="332.00" from="563587633" to="46560873#0"/>
    <trip id="333" depart="333.00" from="56463112#1" to="-56462935#2"/>
    <trip id="334" depart="334.00" from="362999573#2" to="359408298#4"/>
    <trip id="335" depart="335.00" from="359247810#1" to="697072227"/>
    <trip id="336" depart="336.00" from="814592008" to="-77778100#1"/>
    <trip id="337" depart="337.00" from="46560873#0" to="46560873#0"/>
    <trip id="338" depart="338.00" from="562430406#6" to="77777846#2"/>
    <trip id="339" depart="339.00" from="-562631076#1" to="-563175089#2"/>
    <trip id="340" depart="340.00" from="52520671#2" to="-52520671#1"/>
    <trip id="341" depart="341.00" from="-552423756#3" to="-362999571"/>
    <trip id="342" depart="342.00" from="-264106317#1" to="359408298#4"/>
    <trip id="343" depart="343.00" from="398041365#5" to="-77777386#0"/>
    <trip id="344" depart="344.00" from="-56462935#2" to="560361514#1"/>
    <trip id="345" depart="345.00" from="552423761#4" to="359408298#4"/>
    <trip id="346" depart="346.00" from="542186394" to="776405490#1"/>
    <trip id="347" depart="347.00" from="56463095#0" to="479605474#1"/>
    <trip id="348" depart="348.00" from="52520671#3" to="77777204#2"/>
    <trip id="349" depart="349.00" from="359245322#3" to="363002248#0"/>
    <trip id="350" depart="350.00" from="479605474#0" to="766136205#1"/>
    <trip id="351" depart="351.00" from="697060681" to="-362995557#1"/>
    <trip id="352" depart="352.00" from="-530727619#0" to="-77778100#6"/>
    <trip id="353" depart="353.00" from="562631073#0" to="398041363#5"/>
    <trip id="354" depart="354.00" from="-697063415#0" to="-396051490#3"/>
    <trip id="355" depart="355.00" from="542186394" to="55678885#6"/>
    <trip id="356" depart="356.00" from="77777204#0" to="362999573#3"/>
    <trip id="357" depart="357.00" from="359409617#4" to="-362999573#0"/>
    <trip id="358" depart="358.00" from="-359408279#2" to="359408258#1"/>
    <trip id="359" depart="359.00" from="-77778100#6" to="-588552941"/>
    <trip id="360" depart="360.00" from="-362999573#7" to="77778564"/>
    <trip id="361" depart="361.00" from="697060686#2" to="398041366#1"/>
    <trip id="362" depart="362.00" from="77777386#7" to="843161225#1"/>
    <trip id="363" depart="363.00" from="530727619#0" to="-697060686#1"/>
    <trip id="364" depart="364.00" from="-359408279#2" to="562647813"/>
    <trip id="365" depart="365.00" from="359408258#1" to="530727619#0"/>
    <trip id="366" depart="366.00" from="766156745#2" to="-552423761#0"/>
    <trip id="367" depart="367.00" from="396051491#4" to="479612027#0"/>
    <trip id="368" depart="368.00" from="359409617#0" to="-362999575"/>
    <trip id="369" depart="369.00" from="-815159183#1" to="-833506427#1"/>
    <trip id="370" depart="370.00" from="530727619#0" to="697063415#4"/>
    <trip id="371" depart="371.00" from="-77779019#1" to="554170826#7"/>
    <trip id="372" depart="372.00" from="-697063415#0" to="77777498#2"/>
    <trip id="373" depart="373.00" from="60863228#1" to="392657305#1"/>
    <trip id="374" depart="374.00" from="359247813#9" to="-77778279"/>
    <trip id="375" depart="375.00" from="-77778140" to="77779019#6"/>
    <trip id="376" depart="376.00" from="264106317#3" to="362999588#0"/>
    <trip id="377" depart="377.00" from="77779412" to="539383767#11"/>
    <trip id="378" depart="378.00" from="362999590#2" to="359247813#2"/>
    <trip id="379" depart="379.00" from="-552423761#4" to="264106317#1"/>
    <trip id="380" depart="380.00" from="563175088#0" to="479605474#1"/>
    <trip id="381" depart="381.00" from="563175123" to="-562631110"/>
    <trip id="382" depart="382.00" from="363002237#5" to="77777084#3"/>
    <trip id="383" depart="383.00" from="359246029#3" to="55678885#3"/>
    <trip id="384" depart="384.00" from="-392657305#1" to="77779203"/>
    <trip id="385" depart="385.00" from="403676101#0" to="-56463095#0"/>
    <trip id="386" depart="386.00" from="-52520671#6" to="392657305#2"/>
    <trip id="387" depart="387.00" from="363002238#0" to="-362999576"/>
    <trip id="388" depart="388.00" from="822104974#1" to="766156746"/>
    <trip id="389" depart="389.00" from="359408236#3" to="-392657305#1"/>
    <trip id="390" depart="390.00" from="697060685#1" to="362999573#0"/>
    <trip id="391" depart="391.00" from="55678885#6" to="362999575"/>
    <trip id="392" depart="392.00" from="-697060681" to="697060675#0"/>
    <trip id="393" depart="393.00" from="77779019#6" to="-56463152#0"/>
    <trip id="394" depart="394.00" from="363002237#7" to="359245322#3"/>
    <trip id="395" depart="395.00" from="771544256#0" to="362999575"/>
    <trip id="396" depart="396.00" from="756050840#2" to="754707680#1"/>
    <trip id="397" depart="397.00" from="-697060684#0" to="56463069#2"/>
    <trip id="398" depart="398.00" from="359244580#1" to="77777204#3"/>
    <trip id="399" depart="399.00" from="362995555#3" to="60863226#6"/>
    <trip id="400" depart="400.00" from="-697060685#3" to="-77777498#0"/>
    <trip id="401" depart="401.00" from="396051497#1" to="843161225#1"/>
    <trip id="402" depart="402.00" from="359409604" to="-479605459"/>
    <trip id="403" depart="403.00" from="362999587#3" to="154148013#1"/>
    <trip id="404" depart="404.00" from="363002238#0" to="363002247#2"/>
    <trip id="405" depart="405.00" from="359247813#9" to="-77779203"/>
    <trip id="406" depart="406.00" from="-552423762" to="55678885#13"/>
    <trip id="407" depart="407.00" from="392657305#1" to="-56463040#0"/>
    <trip id="408" depart="408.00" from="56463029#1" to="-359408298#2"/>
    <trip id="409" depart="409.00" from="562549604#0" to="560361514#1"/>
    <trip id="410" depart="410.00" from="60863226#6" to="359245322#5"/>
    <trip id="411" depart="411.00" from="52520671#6" to="60863226#6"/>